1
    SWAT Sep 7    VER 2018/Rev 670                                                                       0/ 0/   0      0: 0: 0

    General Input/Output section (file.cio):                                        
    5/13/2020 12:00:00 AM ARCGIS-SWAT interface AV                                  
                                                                                    
         Number of years in run:    7
         Area of watershed:    10212.716 km2
1
    SWAT Sep 7    VER 2018/Rev 670                                                  

    General Input/Output section (file.cio):                                        
    5/13/2020 12:00:00 AM ARCGIS-SWAT interface AV                                  
                                                                                    
Annual Summary for Watershed in year    1 of simulation

UNIT                                    PERCO    TILE                           WATER     SED     NO3     NO3     NO3     NO3        N       P       P
TIME     PREC    SURQ    LATQ     GWQ    LATE       Q     SW       ET     PET   YIELD   YIELD    SURQ    LATQ    PERC    CROP  ORGANIC SOLUBLE ORGANIC TILENO3
         (mm)    (mm)    (mm)    (mm)    (mm)    (mm)    (mm)    (mm)    (mm)    (mm)   (t/ha)  ------------------(kg nutrient/ha)-------------------- (kg/ha)
1
    SWAT Sep 7    VER 2018/Rev 670                                                  

    General Input/Output section (file.cio):                                        
    5/13/2020 12:00:00 AM ARCGIS-SWAT interface AV                                  
                                                                                    
Annual Summary for Watershed in year    2 of simulation

UNIT                                    PERCO    TILE                           WATER     SED     NO3     NO3     NO3     NO3        N       P       P
TIME     PREC    SURQ    LATQ     GWQ    LATE       Q     SW       ET     PET   YIELD   YIELD    SURQ    LATQ    PERC    CROP  ORGANIC SOLUBLE ORGANIC TILENO3
         (mm)    (mm)    (mm)    (mm)    (mm)    (mm)    (mm)    (mm)    (mm)    (mm)   (t/ha)  ------------------(kg nutrient/ha)-------------------- (kg/ha)
1
    SWAT Sep 7    VER 2018/Rev 670                                                  

    General Input/Output section (file.cio):                                        
    5/13/2020 12:00:00 AM ARCGIS-SWAT interface AV                                  
                                                                                    
Annual Summary for Watershed in year    3 of simulation

UNIT                                    PERCO    TILE                           WATER     SED     NO3     NO3     NO3     NO3        N       P       P
TIME     PREC    SURQ    LATQ     GWQ    LATE       Q     SW       ET     PET   YIELD   YIELD    SURQ    LATQ    PERC    CROP  ORGANIC SOLUBLE ORGANIC TILENO3
         (mm)    (mm)    (mm)    (mm)    (mm)    (mm)    (mm)    (mm)    (mm)    (mm)   (t/ha)  ------------------(kg nutrient/ha)-------------------- (kg/ha)
1
    SWAT Sep 7    VER 2018/Rev 670                                                  

    General Input/Output section (file.cio):                                        
    5/13/2020 12:00:00 AM ARCGIS-SWAT interface AV                                  
                                                                                    
Annual Summary for Watershed in year    4 of simulation

UNIT                                    PERCO    TILE                           WATER     SED     NO3     NO3     NO3     NO3        N       P       P
TIME     PREC    SURQ    LATQ     GWQ    LATE       Q     SW       ET     PET   YIELD   YIELD    SURQ    LATQ    PERC    CROP  ORGANIC SOLUBLE ORGANIC TILENO3
         (mm)    (mm)    (mm)    (mm)    (mm)    (mm)    (mm)    (mm)    (mm)    (mm)   (t/ha)  ------------------(kg nutrient/ha)-------------------- (kg/ha)
1
    SWAT Sep 7    VER 2018/Rev 670                                                  

    General Input/Output section (file.cio):                                        
    5/13/2020 12:00:00 AM ARCGIS-SWAT interface AV                                  
                                                                                    
Annual Summary for Watershed in year    5 of simulation

UNIT                                    PERCO    TILE                           WATER     SED     NO3     NO3     NO3     NO3        N       P       P
TIME     PREC    SURQ    LATQ     GWQ    LATE       Q     SW       ET     PET   YIELD   YIELD    SURQ    LATQ    PERC    CROP  ORGANIC SOLUBLE ORGANIC TILENO3
         (mm)    (mm)    (mm)    (mm)    (mm)    (mm)    (mm)    (mm)    (mm)    (mm)   (t/ha)  ------------------(kg nutrient/ha)-------------------- (kg/ha)
1
    SWAT Sep 7    VER 2018/Rev 670                                                  

    General Input/Output section (file.cio):                                        
    5/13/2020 12:00:00 AM ARCGIS-SWAT interface AV                                  
                                                                                    
Annual Summary for Watershed in year    6 of simulation

UNIT                                    PERCO    TILE                           WATER     SED     NO3     NO3     NO3     NO3        N       P       P
TIME     PREC    SURQ    LATQ     GWQ    LATE       Q     SW       ET     PET   YIELD   YIELD    SURQ    LATQ    PERC    CROP  ORGANIC SOLUBLE ORGANIC TILENO3
         (mm)    (mm)    (mm)    (mm)    (mm)    (mm)    (mm)    (mm)    (mm)    (mm)   (t/ha)  ------------------(kg nutrient/ha)-------------------- (kg/ha)
    1    0.05    0.00    0.00    0.01    0.00    0.00   51.25    0.07    0.20    0.01    0.00    0.00    0.00    0.00    0.00     0.00    0.00    0.00    0.00
    2    0.00    0.03    0.00    0.01    0.00    0.00   51.34    0.06    0.08    0.03    0.04    0.00    0.00    0.00    0.00     0.01    0.00    0.00    0.00
    3    0.27    0.00    0.00    0.01    0.00    0.00   51.29    0.09    0.21    0.01    0.00    0.00    0.00    0.00    0.00     0.00    0.00    0.00    0.00
    4    0.36    0.00    0.00    0.01    0.00    0.00   51.29    0.03    0.04    0.01    0.00    0.00    0.00    0.00    0.00     0.00    0.00    0.00    0.00
    5    0.00    0.00    0.00    0.01    0.00    0.00   51.29    0.04    0.06    0.01    0.00    0.00    0.00    0.00    0.00     0.00    0.00    0.00    0.00
    6    0.00    0.00    0.00    0.01    0.00    0.00   51.25    0.06    0.16    0.01    0.00    0.00    0.00    0.00    0.00     0.00    0.00    0.00    0.00
    7    0.00    0.00    0.00    0.01    0.00    0.00   51.23    0.06    0.14    0.01    0.00    0.00    0.00    0.00    0.00     0.00    0.00    0.00    0.00
    8    0.58    0.00    0.00    0.01    0.00    0.00   51.23    0.01    0.01    0.01    0.00    0.00    0.00    0.00    0.00     0.00    0.00    0.00    0.00
    9    0.03    0.00    0.00    0.01    0.00    0.00   51.15    0.10    0.29    0.01    0.00    0.00    0.00    0.00    0.00     0.00    0.00    0.00    0.00
   10    0.18    0.00    0.00    0.01    0.00    0.00   51.14    0.04    0.09    0.01    0.00    0.00    0.00    0.00    0.00     0.00    0.00    0.00    0.00
   11    0.89    0.00    0.00    0.01    0.00    0.00   51.14    0.01    0.01    0.01    0.00    0.00    0.00    0.00    0.00     0.00    0.00    0.00    0.00
   12    0.35    0.00    0.00    0.01    0.00    0.00   51.12    0.03    0.08    0.01    0.00    0.00    0.00    0.00    0.00     0.00    0.00    0.00    0.00
   13    0.03    0.00    0.00    0.01    0.00    0.00   51.09    0.06    0.15    0.01    0.00    0.00    0.00    0.00    0.00     0.00    0.00    0.00    0.00
   14    0.04    0.00    0.00    0.01    0.00    0.00   51.07    0.04    0.09    0.01    0.00    0.00    0.00    0.00    0.00     0.00    0.00    0.00    0.00
   15    0.00    0.00    0.00    0.01    0.00    0.00   50.99    0.12    0.34    0.01    0.00    0.00    0.00    0.00    0.00     0.00    0.00    0.00    0.00
   16    0.00    0.00    0.00    0.01    0.00    0.00   50.90    0.13    0.35    0.01    0.00    0.00    0.00    0.00    0.00     0.00    0.00    0.00    0.00
   17    0.05    0.00    0.00    0.01    0.00    0.00   50.88    0.05    0.12    0.01    0.00    0.00    0.00    0.00    0.00     0.00    0.00    0.00    0.00
   18    0.08    0.00    0.00    0.01    0.00    0.00   50.82    0.08    0.19    0.01    0.00    0.00    0.00    0.00    0.00     0.00    0.00    0.00    0.00
   19    0.15    0.00    0.00    0.01    0.00    0.00   50.79    0.06    0.18    0.01    0.00    0.00    0.00    0.00    0.00     0.00    0.00    0.00    0.00
   20    0.00    0.00    0.00    0.01    0.00    0.00   50.79    0.02    0.03    0.01    0.00    0.00    0.00    0.00    0.00     0.00    0.00    0.00    0.00
   21    0.36    0.00    0.00    0.01    0.00    0.00   50.78    0.02    0.03    0.01    0.00    0.00    0.00    0.00    0.00     0.00    0.00    0.00    0.00
   22    0.12    0.00    0.00    0.00    0.00    0.00   50.77    0.04    0.11    0.01    0.00    0.00    0.00    0.00    0.00     0.00    0.00    0.00    0.00
   23    0.56    0.00    0.00    0.00    0.00    0.00   50.77    0.02    0.03    0.01    0.00    0.00    0.00    0.00    0.00     0.00    0.00    0.00    0.00
   24    0.14    0.00    0.00    0.00    0.00    0.00   50.65    0.14    0.48    0.01    0.00    0.00    0.00    0.00    0.00     0.00    0.00    0.00    0.00
   25    0.00    0.00    0.00    0.00    0.00    0.00   50.51    0.19    0.55    0.01    0.00    0.00    0.00    0.00    0.00     0.00    0.00    0.00    0.00
   26    0.14    0.00    0.00    0.00    0.00    0.00   50.45    0.10    0.22    0.01    0.00    0.00    0.00    0.00    0.00     0.00    0.00    0.00    0.00
   27    0.00    0.00    0.00    0.00    0.00    0.00   50.39    0.10    0.27    0.01    0.00    0.00    0.00    0.00    0.00     0.00    0.00    0.00    0.00
   28    0.00    0.00    0.00    0.00    0.00    0.00   50.31    0.13    0.37    0.01    0.00    0.00    0.00    0.00    0.00     0.00    0.00    0.00    0.00
   29    0.49    0.00    0.00    0.00    0.00    0.00   50.30    0.03    0.07    0.01    0.00    0.00    0.00    0.00    0.00     0.00    0.00    0.00    0.00
   30    0.57    0.00    0.00    0.00    0.00    0.00   50.30    0.02    0.02    0.01    0.00    0.00    0.00    0.00    0.00     0.00    0.00    0.00    0.00
   31    0.99    0.00    0.00    0.00    0.00    0.00   50.28    0.04    0.10    0.01    0.00    0.00    0.00    0.00    0.00     0.00    0.00    0.00    0.00
    1    6.41    0.03    0.00    0.18    0.00    0.00   50.28    1.96    5.07    0.28    0.04    0.00    0.00    0.00    0.00     0.02    0.00    0.00    0.00
   32    0.18    0.00    0.00    0.00    0.00    0.00   50.27    0.03    0.07    0.01    0.00    0.00    0.00    0.00    0.00     0.00    0.00    0.00    0.00
   33    0.06    0.00    0.00    0.00    0.00    0.00   50.27    0.03    0.05    0.01    0.00    0.00    0.00    0.00    0.00     0.00    0.00    0.00    0.00
   34    0.00    0.00    0.00    0.00    0.00    0.00   50.22    0.10    0.28    0.01    0.00    0.00    0.00    0.00    0.00     0.00    0.00    0.00    0.00
   35    0.00    0.00    0.00    0.00    0.00    0.00   50.13    0.15    0.44    0.01    0.00    0.00    0.00    0.00    0.00     0.00    0.00    0.00    0.00
   36    0.00    0.00    0.00    0.00    0.00    0.00   50.12    0.08    0.16    0.00    0.00    0.00    0.00    0.00    0.00     0.00    0.00    0.00    0.00
   37    0.26    0.00    0.00    0.00    0.00    0.00   50.12    0.02    0.03    0.00    0.00    0.00    0.00    0.00    0.00     0.00    0.00    0.00    0.00
   38    0.56    0.00    0.00    0.00    0.00    0.00   50.12    0.02    0.03    0.00    0.00    0.00    0.00    0.00    0.00     0.00    0.00    0.00    0.00
   39    0.30    0.00    0.00    0.00    0.00    0.00   50.12    0.02    0.04    0.00    0.00    0.00    0.00    0.00    0.00     0.00    0.00    0.00    0.00
   40    0.23    0.00    0.00    0.00    0.00    0.00   50.11    0.03    0.06    0.00    0.00    0.00    0.00    0.00    0.00     0.00    0.00    0.00    0.00
   41    0.19    0.00    0.00    0.00    0.00    0.00   50.09    0.06    0.15    0.00    0.00    0.00    0.00    0.00    0.00     0.00    0.00    0.00    0.00
   42    1.52    0.00    0.00    0.00    0.00    0.00   50.09    0.02    0.03    0.00    0.00    0.00    0.00    0.00    0.00     0.00    0.00    0.00    0.00
   43    0.11    0.00    0.00    0.00    0.00    0.00   50.06    0.05    0.16    0.00    0.00    0.00    0.00    0.00    0.00     0.00    0.00    0.00    0.00
   44    0.03    0.00    0.00    0.00    0.00    0.00   50.00    0.11    0.33    0.00    0.00    0.00    0.00    0.00    0.00     0.00    0.00    0.00    0.00
   45    0.73    0.00    0.00    0.00    0.00    0.00   50.00    0.03    0.04    0.00    0.00    0.00    0.00    0.00    0.00     0.00    0.00    0.00    0.00
   46    1.10    0.00    0.00    0.00    0.00    0.00   50.00    0.04    0.05    0.00    0.00    0.00    0.00    0.00    0.00     0.00    0.00    0.00    0.00
   47    0.91    0.00    0.00    0.00    0.00    0.00   50.00    0.04    0.06    0.00    0.00    0.00    0.00    0.00    0.00     0.00    0.00    0.00    0.00
   48    0.13    0.00    0.00    0.00    0.00    0.00   49.83    0.21    0.66    0.00    0.00    0.00    0.00    0.00    0.00     0.00    0.00    0.00    0.00
   49    0.00    0.00    0.00    0.00    0.00    0.00   49.69    0.19    0.67    0.00    0.00    0.00    0.00    0.00    0.00     0.00    0.00    0.00    0.00
   50    0.04    0.00    0.00    0.00    0.00    0.00   49.65    0.09    0.36    0.00    0.00    0.00    0.00    0.00    0.00     0.00    0.00    0.00    0.00
   51    1.09    0.00    0.00    0.00    0.00    0.00   49.65    0.02    0.03    0.00    0.00    0.00    0.00    0.00    0.00     0.00    0.00    0.00    0.00
   52    1.22    0.00    0.00    0.00    0.00    0.00   49.63    0.04    0.11    0.00    0.00    0.00    0.00    0.00    0.00     0.00    0.00    0.00    0.00
   53    0.00    0.00    0.00    0.00    0.00    0.00   49.50    0.19    0.84    0.00    0.00    0.00    0.00    0.00    0.00     0.00    0.00    0.00    0.00
   54    1.36    0.00    0.00    0.00    0.00    0.00   49.50    0.01    0.02    0.00    0.00    0.00    0.00    0.00    0.00     0.00    0.00    0.00    0.00
   55    1.40    0.00    0.00    0.00    0.00    0.00   49.50    0.02    0.03    0.00    0.00    0.00    0.00    0.00    0.00     0.00    0.00    0.00    0.00
   56    0.39    0.00    0.00    0.00    0.00    0.00   49.50    0.03    0.05    0.00    0.00    0.00    0.00    0.00    0.00     0.00    0.00    0.00    0.00
   57    0.00    0.00    0.00    0.00    0.00    0.00   49.45    0.09    0.41    0.00    0.00    0.00    0.00    0.00    0.00     0.00    0.00    0.00    0.00
   58    0.00    0.00    0.00    0.00    0.00    0.00   49.42    0.09    0.38    0.00    0.00    0.00    0.00    0.00    0.00     0.00    0.00    0.00    0.00
   59    0.00    0.00    0.00    0.00    0.00    0.00   49.42    0.06    0.09    0.00    0.00    0.00    0.00    0.00    0.00     0.00    0.00    0.00    0.00
    2   11.82    0.00    0.00    0.06    0.00    0.00   49.42    1.89    5.62    0.11    0.00    0.00    0.00    0.00    0.00     0.00    0.00    0.00    0.00
   60    0.91    0.00    0.00    0.00    0.00    0.00   49.42    0.06    0.08    0.00    0.00    0.00    0.00    0.00    0.00     0.00    0.00    0.00    0.00
   61    0.40    0.00    0.00    0.00    0.00    0.00   49.42    0.07    0.19    0.00    0.00    0.00    0.00    0.00    0.00     0.00    0.00    0.00    0.00
   62    0.05    0.00    0.00    0.00    0.00    0.00   49.42    0.06    0.09    0.00    0.00    0.00    0.00    0.00    0.00     0.00    0.00    0.00    0.00
   63    0.00    0.00    0.00    0.00    0.00    0.00   49.30    0.20    0.95    0.00    0.00    0.00    0.00    0.00    0.00     0.00    0.00    0.00    0.00
   64    0.00    0.00    0.00    0.00    0.00    0.00   49.25    0.12    0.53    0.00    0.00    0.00    0.00    0.00    0.00     0.00    0.00    0.00    0.00
   65    0.81    0.00    0.00    0.00    0.00    0.00   49.25    0.05    0.08    0.00    0.00    0.00    0.00    0.00    0.00     0.00    0.00    0.00    0.00
   66    0.96    0.00    0.00    0.00    0.00    0.00   49.25    0.04    0.06    0.00    0.00    0.00    0.00    0.00    0.00     0.00    0.00    0.00    0.00
   67    0.13    0.00    0.00    0.00    0.00    0.00   49.22    0.09    0.31    0.00    0.00    0.00    0.00    0.00    0.00     0.00    0.00    0.00    0.00
   68    0.49    0.00    0.00    0.00    0.00    0.00   49.21    0.04    0.10    0.00    0.00    0.00    0.00    0.00    0.00     0.00    0.00    0.00    0.00
   69    0.00    0.00    0.00    0.00    0.00    0.00   49.21    0.09    0.24    0.00    0.00    0.00    0.00    0.00    0.00     0.00    0.00    0.00    0.00
   70    0.00    0.00    0.00    0.00    0.00    0.00   49.20    0.08    0.28    0.00    0.00    0.00    0.00    0.00    0.00     0.00    0.00    0.00    0.00
   71    0.00    0.00    0.00    0.00    0.00    0.00   49.12    0.16    0.80    0.00    0.00    0.00    0.00    0.00    0.00     0.00    0.00    0.00    0.00
   72    1.94    0.00    0.00    0.00    0.00    0.00   49.12    0.04    0.08    0.00    0.00    0.00    0.00    0.00    0.00     0.00    0.00    0.00    0.00
   73    0.04    0.00    0.00    0.00    0.00    0.00   49.08    0.11    0.45    0.00    0.00    0.00    0.00    0.00    0.00     0.00    0.00    0.00    0.00
   74    0.08    0.00    0.00    0.00    0.00    0.00   49.05    0.12    0.47    0.00    0.00    0.00    0.00    0.00    0.00     0.00    0.00    0.00    0.00
   75    0.00    0.00    0.00    0.00    0.00    0.00   49.02    0.14    0.58    0.00    0.00    0.00    0.00    0.00    0.00     0.00    0.00    0.00    0.00
   76    0.00    0.00    0.00    0.00    0.00    0.00   48.97    0.14    0.77    0.00    0.00    0.00    0.00    0.00    0.00     0.00    0.00    0.00    0.00
   77    0.00    0.00    0.00    0.00    0.00    0.00   48.93    0.11    0.56    0.00    0.00    0.00    0.00    0.00    0.00     0.00    0.00    0.00    0.00
   78    0.35    0.00    0.00    0.00    0.00    0.00   48.89    0.09    0.66    0.00    0.00    0.00    0.00    0.00    0.00     0.00    0.00    0.00    0.00
   79    0.00    0.00    0.00    0.00    0.00    0.00   48.88    0.10    0.38    0.00    0.00    0.00    0.00    0.00    0.00     0.00    0.00    0.00    0.00
   80    0.26    0.00    0.00    0.00    0.00    0.00   48.86    0.10    0.43    0.00    0.00    0.00    0.00    0.00    0.00     0.00    0.00    0.00    0.00
   81    0.12    0.00    0.00    0.00    0.00    0.00   48.82    0.15    0.85    0.00    0.00    0.00    0.00    0.00    0.00     0.00    0.00    0.00    0.00
   82    3.02    0.00    0.00    0.00    0.00    0.00   48.80    0.07    0.39    0.00    0.00    0.00    0.00    0.00    0.00     0.00    0.00    0.00    0.00
   83    0.00    0.00    0.00    0.00    0.00    0.00   48.75    0.18    1.01    0.00    0.00    0.00    0.00    0.00    0.00     0.00    0.00    0.00    0.00
   84    0.04    0.00    0.00    0.00    0.00    0.00   48.74    0.09    0.36    0.00    0.00    0.00    0.00    0.00    0.00     0.00    0.00    0.00    0.00
   85    2.33    0.00    0.00    0.00    0.00    0.00   48.73    0.07    0.36    0.00    0.00    0.00    0.00    0.00    0.00     0.00    0.00    0.00    0.00
   86    0.62    0.00    0.00    0.00    0.00    0.00   48.73    0.05    0.08    0.00    0.00    0.00    0.00    0.00    0.00     0.00    0.00    0.00    0.00
   87    0.92    0.00    0.00    0.00    0.00    0.00   48.72    0.03    0.12    0.00    0.00    0.00    0.00    0.00    0.00     0.00    0.00    0.00    0.00
   88    1.68    0.00    0.00    0.00    0.00    0.00   48.72    0.04    0.11    0.00    0.00    0.00    0.00    0.00    0.00     0.00    0.00    0.00    0.00
   89    0.30    0.00    0.00    0.00    0.00    0.00   48.71    0.11    0.41    0.00    0.00    0.00    0.00    0.00    0.00     0.00    0.00    0.00    0.00
   90    4.26    0.00    0.00    0.00    0.00    0.00   48.71    0.07    0.10    0.00    0.00    0.00    0.00    0.00    0.00     0.00    0.00    0.00    0.00
    3   19.71    0.00    0.00    0.01    0.00    0.00   48.71    2.84   11.89    0.05    0.00    0.00    0.00    0.00    0.00     0.00    0.00    0.00    0.00
   91    0.00    9.67    0.00    0.00    0.00    0.00   51.72    0.74    1.68    8.09   14.52    0.02    0.00    0.00    0.00     3.32    0.00    0.41    0.00
   92    0.00    4.17    0.00    0.00    0.00    0.00   52.79    0.95    1.69    4.70    0.02    0.01    0.00    0.00    0.00     1.04    0.00    0.13    0.00
   93    0.12    0.46    0.00    0.00    0.00    0.00   52.67    0.49    0.97    1.21    0.93    0.00    0.00    0.00    0.00     0.20    0.00    0.02    0.00
   94    0.00    0.30    0.00    0.00    0.00    0.00   52.50    0.53    0.95    0.51    0.00    0.00    0.00    0.00    0.00     0.07    0.00    0.01    0.00
   95    0.00    1.32    0.00    0.00    0.00    0.00   52.85    0.58    1.09    1.19    0.83    0.00    0.00    0.00    0.00     0.18    0.00    0.02    0.00
   96    0.00    0.72    0.00    0.00    0.00    0.00   52.58    0.80    1.67    0.77    0.01    0.00    0.00    0.00    0.00     0.11    0.00    0.01    0.00
   97    4.34    0.00    0.00    0.00    0.00    0.00   52.56    0.08    0.15    0.14    0.00    0.00    0.00    0.00    0.00     0.02    0.00    0.00    0.00
   98    2.08    0.00    0.00    0.00    0.00    0.00   52.44    0.20    0.48    0.04    0.00    0.00    0.00    0.00    0.00     0.00    0.00    0.00    0.00
   99    0.00    0.00    0.00    0.00    0.00    0.00   52.27    0.27    0.66    0.01    0.00    0.00    0.00    0.00    0.00     0.00    0.00    0.00    0.00
  100    0.00    0.00    0.00    0.00    0.00    0.00   51.97    0.41    1.09    0.00    0.00    0.00    0.00    0.00    0.00     0.00    0.00    0.00    0.00
  101    0.00    0.00    0.00    0.00    0.00    0.00   51.75    0.34    0.88    0.00    0.00    0.00    0.00    0.00    0.00     0.00    0.00    0.00    0.00
  102    0.44    0.00    0.00    0.00    0.00    0.00   51.63    0.21    0.55    0.00    0.00    0.00    0.00    0.00    0.00     0.00    0.00    0.00    0.00
  103    1.67    0.00    0.00    0.00    0.00    0.00   51.63    0.06    0.09    0.00    0.00    0.00    0.00    0.00    0.00     0.00    0.00    0.00    0.00
  104    2.37    0.00    0.00    0.00    0.00    0.00   51.63    0.05    0.07    0.00    0.00    0.00    0.00    0.00    0.00     0.00    0.00    0.00    0.00
  105    3.22    0.00    0.00    0.00    0.00    0.00   51.60    0.07    0.15    0.00    0.00    0.00    0.00    0.00    0.00     0.00    0.00    0.00    0.00
  106    2.02    0.00    0.00    0.00    0.00    0.00   51.50    0.21    0.71    0.00    0.00    0.00    0.00    0.00    0.00     0.00    0.00    0.00    0.00
  107    3.39    0.00    0.00    0.00    0.00    0.00   51.38    0.22    0.62    0.00    0.00    0.00    0.00    0.00    0.00     0.00    0.00    0.00    0.00
  108    2.59    0.00    0.00    0.00    0.00    0.00   51.35    0.10    0.21    0.00    0.00    0.00    0.00    0.00    0.00     0.00    0.00    0.00    0.00
  109    4.35    0.00    0.00    0.00    0.00    0.00   51.26    0.15    0.43    0.00    0.00    0.00    0.00    0.00    0.00     0.00    0.00    0.00    0.00
  110    0.00    2.16    0.00    0.00    0.00    0.00   51.75    0.57    1.57    1.82    2.63    0.01    0.00    0.00    0.00     0.26    0.00    0.03    0.00
  111    0.00    0.00    0.00    0.00    0.00    0.00   51.53    0.39    1.12    0.27    0.00    0.00    0.00    0.00    0.00     0.04    0.00    0.00    0.00
  112    0.00    0.00    0.00    0.00    0.00    0.00   51.31    0.34    0.96    0.06    0.00    0.00    0.00    0.00    0.00     0.01    0.00    0.00    0.00
  113    0.00    0.00    0.00    0.00    0.00    0.00   51.21    0.22    0.57    0.01    0.00    0.00    0.00    0.00    0.00     0.00    0.00    0.00    0.00
  114    0.30    0.15    0.00    0.00    0.00    0.00   51.22    0.28    0.79    0.14    0.28    0.00    0.00    0.00    0.00     0.01    0.00    0.00    0.00
  115   11.44    0.00    0.00    0.00    0.00    0.00   51.22    0.07    0.09    0.02    0.00    0.00    0.00    0.00    0.00     0.00    0.00    0.00    0.00
  116    2.03    0.00    0.00    0.00    0.00    0.00   51.06    0.23    0.45    0.00    0.00    0.00    0.00    0.00    0.00     0.00    0.00    0.00    0.00
  117    0.00    0.63    0.00    0.00    0.00    0.00   51.13    0.57    1.76    0.54    0.97    0.00    0.00    0.00    0.00     0.06    0.00    0.01    0.00
  118    1.84    0.45    0.00    0.00    0.00    0.00   51.43    0.22    0.58    0.46    0.02    0.00    0.00    0.00    0.00     0.07    0.00    0.01    0.00
  119    4.65    0.00    0.00    0.00    0.00    0.00   51.40    0.12    0.23    0.07    0.00    0.00    0.00    0.00    0.00     0.01    0.00    0.00    0.00
  120    7.87    0.00    0.00    0.00    0.00    0.00   51.39    0.07    0.13    0.01    0.00    0.00    0.00    0.00    0.00     0.00    0.00    0.00    0.00
    4   54.74   20.04    0.00    0.00    0.00    0.00   51.39    9.55   22.42   20.06   20.22    0.06    0.00    0.00    0.00     5.41    0.00    0.68    0.00
  121    1.73    0.00    0.00    0.00    0.00    0.00   51.08    0.39    0.98    0.00    0.00    0.00    0.00    0.00    0.00     0.00    0.00    0.00    0.00
  122    0.66    0.00    0.00    0.00    0.00    0.00   50.87    0.36    0.89    0.00    0.00    0.00    0.00    0.00    0.00     0.00    0.00    0.00    0.00
  123    0.33    0.57    0.00    0.00    0.00    0.00   51.07    0.34    1.10    0.47    0.38    0.00    0.00    0.00    0.00     0.07    0.00    0.01    0.00
  124    5.14    0.00    0.00    0.00    0.00    0.00   51.07    0.08    0.12    0.08    0.00    0.00    0.00    0.00    0.00     0.01    0.00    0.00    0.00
  125    0.00    3.14    0.00    0.00    0.00    0.00   51.80    0.49    1.57    2.65    3.01    0.01    0.00    0.00    0.00     0.39    0.00    0.05    0.00
  126    0.00    4.93    0.00    0.00    0.00    0.00   52.98    1.35    2.90    4.51    3.47    0.01    0.00    0.00    0.00     0.86    0.00    0.11    0.00
  127    0.00    3.62    0.00    0.00    0.00    0.00   53.49    0.97    1.93    3.74    1.43    0.01    0.00    0.00    0.00     0.66    0.00    0.08    0.00
  128    9.63    0.24    0.00    0.00    0.00    0.00   53.73    0.10    0.17    0.81    0.12    0.00    0.00    0.00    0.00     0.11    0.00    0.01    0.00
  129    9.25    4.44    0.00    0.00    0.00    0.00   54.30    0.56    0.96    3.90    3.38    0.01    0.00    0.00    0.00     0.59    0.00    0.08    0.00
  130    4.03    7.37    0.02    0.00    0.05    0.00   56.23    0.70    1.30    6.82   10.86    0.01    0.00    0.00    0.00     1.90    0.00    0.23    0.00
  131    0.92    0.70    0.01    0.00    0.16    0.00   55.91    0.66    1.26    1.61    0.01    0.00    0.00    0.00    0.00     0.26    0.00    0.03    0.00
  132    1.14    0.06    0.02    0.00    0.11    0.00   55.40    0.67    1.25    0.39    0.01    0.00    0.00    0.00    0.00     0.05    0.00    0.01    0.00
  133    0.80    0.11    0.03    0.00    0.40    0.00   54.59    0.65    1.38    0.21    0.00    0.00    0.00    0.01    0.00     0.02    0.00    0.00    0.00
  134    0.00    0.85    0.03    0.00    0.14    0.00   54.19    0.96    2.73    0.77    0.11    0.00    0.00    0.00    0.00     0.08    0.00    0.01    0.00
  135    3.69    0.01    0.03    0.00    0.10    0.00   54.31    0.18    0.58    0.18    0.09    0.00    0.00    0.00    0.00     0.01    0.00    0.00    0.00
  136   10.08    5.37    0.09    0.00    0.20    0.00   56.48    0.27    0.39    4.65    2.99    0.01    0.00    0.00    0.00     0.65    0.00    0.08    0.00
  137    0.80   12.71    0.09    0.00    0.07    0.00   59.83    1.32    2.90   11.63   37.53    0.01    0.00    0.00    0.00     5.81    0.00    0.71    0.00
  138    0.00   16.44    0.08    0.00    0.35    0.00   62.03    1.70    3.59   15.80   37.70    0.02    0.00    0.00    0.00     4.97    0.00    0.60    0.00
  139    2.16   20.14    0.08    0.01    0.26    0.00   64.46    0.93    1.57   19.69   55.04    0.02    0.00    0.00    0.00     3.74    0.00    0.45    0.00
  140    0.20    5.90    0.12    0.01    0.09    0.00   63.21    3.08    4.47    7.92    3.23    0.01    0.00    0.00    0.00     1.07    0.00    0.13    0.00
  141    2.04    4.05    0.13    0.01    0.16    0.00   63.20    2.10    3.05    4.88   17.28    0.00    0.00    0.00    0.00     0.44    0.00    0.05    0.00
  142    1.12    5.28    0.17    0.01    0.86    0.00   60.99    2.84    5.28    5.49   17.74    0.00    0.00    0.01    0.00     0.43    0.00    0.06    0.00
  143    4.20    2.49    0.26    0.01    1.28    0.00   61.42    0.95    1.93    3.07    2.42    0.01    0.00    0.03    0.00     0.26    0.00    0.03    0.00
  144    2.15    0.07    0.21    0.01    0.83    0.00   60.42    1.02    2.97    0.58    0.19    0.00    0.00    0.03    0.00     0.02    0.00    0.00    0.00
  145    0.00    0.74    0.16    0.02    0.29    0.00   59.41    1.71    4.34    0.91    3.81    0.00    0.00    0.01    0.00     0.04    0.00    0.01    0.00
  146    0.00    0.78    0.13    0.02    0.08    0.00   58.63    1.15    5.06    0.93    2.49    0.00    0.00    0.00    0.00     0.06    0.00    0.01    0.00
  147    0.28    0.08    0.11    0.02    0.09    0.00   58.41    0.70    4.10    0.28    0.09    0.00    0.00    0.00    0.00     0.01    0.00    0.00    0.00
  148    3.29    0.02    0.10    0.02    0.12    0.00   58.28    0.34    2.36    0.17    0.15    0.00    0.00    0.00    0.00     0.00    0.00    0.00    0.00
  149    1.30    0.00    0.09    0.03    0.04    0.00   58.31    0.34    1.88    0.13    0.00    0.00    0.00    0.00    0.00     0.00    0.00    0.00    0.00
  150    0.00    0.00    0.07    0.03    0.01    0.00   58.21    0.26    1.98    0.10    0.00    0.00    0.00    0.00    0.00     0.00    0.00    0.00    0.00
  151    1.89    0.00    0.05    0.03    0.00    0.00   58.15    0.21    2.09    0.09    0.00    0.00    0.00    0.00    0.00     0.00    0.00    0.00    0.00
    5   66.83  100.11    2.09    0.23    5.70    0.00   58.15   27.39   67.09  102.47  203.52    0.13    0.02    0.13    0.00    22.51    0.01    2.75    0.00
  152    0.00    1.96    0.07    0.04    0.00    0.00   58.96    1.35    4.12    1.74    2.72    0.01    0.00    0.00    0.00     0.21    0.00    0.02    0.00
  153    0.00    0.00    0.05    0.04    0.00    0.00   58.48    0.70    3.78    0.33    0.00    0.00    0.00    0.00    0.00     0.03    0.00    0.00    0.00
  154    0.00    1.41    0.04    0.04    0.00    0.00   58.46    1.21    5.42    1.42    7.79    0.00    0.00    0.00    0.00     0.07    0.00    0.01    0.00
  155    0.00    1.49    0.04    0.05    0.28    0.00   58.09    0.72    5.27    1.54    5.59    0.00    0.00    0.00    0.00     0.11    0.00    0.01    0.00
  156    0.00    1.50    0.03    0.05    0.23    0.00   58.00    0.55    5.64    1.58    5.73    0.00    0.00    0.01    0.00     0.10    0.00    0.01    0.00
  157    0.68    0.44    0.03    0.05    0.21    0.00   57.78    0.88    4.43    0.64    0.76    0.00    0.00    0.01    0.00     0.02    0.00    0.00    0.00
  158    0.00    0.01    0.03    0.05    0.07    0.00   57.12    0.86    5.26    0.16    0.00    0.00    0.00    0.00    0.00     0.00    0.00    0.00    0.00
  159   16.27    0.79    0.05    0.06    0.41    0.00   57.32    0.21    2.03    0.78    2.80    0.00    0.00    0.02    0.00     0.07    0.00    0.01    0.00
  160    0.00    4.66    0.07    0.06    0.21    0.00   58.13    1.98    5.13    4.34   23.25    0.01    0.00    0.01    0.00     0.20    0.00    0.03    0.00
  161    1.07    2.36    0.06    0.06    0.08    0.00   58.40    1.42    5.03    2.54    2.43    0.01    0.00    0.00    0.00     0.08    0.00    0.01    0.00
  162    0.33    0.85    0.07    0.06    0.06    0.00   57.61    1.38    5.64    1.27    2.09    0.00    0.00    0.00    0.00     0.02    0.00    0.00    0.00
  163    0.00    0.79    0.08    0.07    0.48    0.00   56.53    0.86    6.47    1.02    0.67    0.00    0.00    0.01    0.00     0.01    0.00    0.00    0.00
  164    6.91    3.28    0.18    0.07    1.70    0.00   57.23    0.76    4.57    3.17    4.83    0.02    0.00    0.05    0.01     0.27    0.00    0.03    0.00
  165    3.96    1.53    0.18    0.07    0.85    0.00   57.30    1.19    4.79    1.85    5.98    0.01    0.00    0.02    0.02     0.08    0.00    0.01    0.00
  166    2.33    0.74    0.19    0.08    0.79    0.00   56.78    1.02    4.92    1.28    1.98    0.02    0.00    0.03    0.11     0.05    0.00    0.01    0.00
  167    0.00    0.15    0.15    0.08    0.31    0.00   55.95    0.95    5.60    0.52    1.07    0.00    0.00    0.01    0.06     0.01    0.00    0.00    0.00
  168    0.00    0.00    0.12    0.09    0.12    0.00   55.09    1.02    6.31    0.25    0.00    0.00    0.00    0.00    0.15     0.00    0.00    0.00    0.00
  169    0.00    0.00    0.10    0.09    0.05    0.00   54.29    1.01    6.31    0.21    0.00    0.00    0.00    0.00    0.21     0.00    0.00    0.00    0.00
  170    8.34    3.29    0.22    0.10    0.77    0.00   56.90    1.02    3.29    3.18   11.34    0.27    0.00    0.03    0.17     0.20    0.00    0.02    0.00
  171    0.60    0.13    0.19    0.11    0.30    0.00   56.24    1.02    5.69    0.75    0.00    0.11    0.00    0.01    0.14     0.04    0.00    0.00    0.00
  172    0.00    0.00    0.15    0.11    0.18    0.00   54.90    1.42    5.63    0.34    0.00    0.00    0.00    0.01    0.19     0.01    0.00    0.00    0.00
  173    0.00    0.00    0.12    0.12    0.26    0.00   53.88    1.03    6.67    0.26    0.00    0.00    0.00    0.03    0.36     0.00    0.00    0.00    0.00
  174    1.26    0.21    0.12    0.12    0.10    0.00   53.81    1.15    6.19    0.45    2.30    0.00    0.00    0.01    0.62     0.00    0.00    0.00    0.00
  175   15.92    4.46    0.32    0.12    1.12    0.00   58.13    1.12    2.28    4.41    6.43    0.37    0.01    0.07    0.46     0.37    0.00    0.05    0.00
  176    4.53    1.97    0.35    0.13    0.71    0.00   59.50    1.75    4.51    2.72    7.64    0.06    0.01    0.05    0.51     0.18    0.00    0.02    0.00
  177    0.00    0.89    0.29    0.13    0.23    0.00   58.97    1.28    5.39    1.44    3.87    0.00    0.01    0.01    0.65     0.06    0.00    0.01    0.00
  178    0.96    0.18    0.24    0.14    0.05    0.00   58.64    1.28    5.32    0.66    0.36    0.00    0.01    0.00    0.60     0.02    0.00    0.00    0.00
  179    0.00    0.04    0.20    0.14    0.01    0.00   56.61    2.58    5.20    0.42    0.09    0.00    0.00    0.00    0.65     0.01    0.00    0.00    0.00
  180    0.00    0.00    0.16    0.15    0.00    0.00   55.72    1.16    5.70    0.32    0.00    0.00    0.00    0.00    0.84     0.00    0.00    0.00    0.00
  181    5.59    0.67    0.20    0.15    0.01    0.00   58.76    1.01    2.17    0.97    3.85    0.01    0.00    0.00    0.51     0.02    0.00    0.00    0.00
    6   68.76   33.80    4.11    2.64    9.59    0.00   58.76   33.89  148.77   40.58  103.55    0.94    0.07    0.43    6.27     2.24    0.00    0.28    0.00
  182    0.00    0.03    0.16    0.15    0.01    0.00   57.56    1.77    5.97    0.38    0.00    0.00    0.00    0.00    0.25     0.00    0.00    0.00    0.00
  183    0.00    0.00    0.13    0.15    0.38    0.00   55.94    1.52    6.20    0.29    0.00    0.00    0.00    0.02    0.96     0.00    0.00    0.00    0.00
  184    0.00    0.00    0.10    0.15    0.22    0.00   54.87    1.10    5.90    0.26    0.00    0.00    0.00    0.02    0.93     0.00    0.00    0.00    0.00
  185    1.16    0.04    0.11    0.16    0.08    0.00   54.89    1.14    5.03    0.30    0.24    0.00    0.00    0.01    0.31     0.00    0.00    0.00    0.00
  186    0.00    0.00    0.08    0.16    0.03    0.00   53.75    1.37    5.40    0.25    0.00    0.00    0.00    0.00    0.10     0.00    0.00    0.00    0.00
  187    0.00    0.00    0.07    0.16    0.58    0.00   52.23    1.19    6.76    0.24    0.00    0.00    0.00    0.06    0.20     0.00    0.00    0.00    0.00
  188    0.00    0.00    0.06    0.16    0.02    0.00   51.37    1.09    5.46    0.22    0.00    0.00    0.00    0.00    0.32     0.00    0.00    0.00    0.00
  189    0.00    0.00    0.05    0.16    0.00    0.00   50.45    1.18    5.12    0.21    0.00    0.00    0.00    0.00    0.15     0.00    0.00    0.00    0.00
  190    2.49    0.18    0.09    0.16    0.03    0.00   51.81    0.89    3.54    0.42    1.24    0.00    0.00    0.00    0.19     0.00    0.00    0.00    0.00
  191    0.92    0.06    0.09    0.16    0.06    0.00   51.41    1.35    4.93    0.32    0.13    0.00    0.00    0.01    0.16     0.00    0.00    0.00    0.00
  192    0.00    0.00    0.08    0.16    0.66    0.00   49.47    1.50    6.25    0.25    0.00    0.00    0.00    0.01    0.20     0.00    0.00    0.00    0.00
  193    0.60    0.00    0.08    0.16    0.59    0.00   48.47    1.21    6.29    0.25    0.00    0.00    0.00    0.06    0.24     0.00    0.00    0.00    0.00
  194    0.00    0.00    0.07    0.16    0.20    0.00   47.35    1.20    7.33    0.24    0.00    0.00    0.00    0.02    0.27     0.00    0.00    0.00    0.00
  195    2.74    0.36    0.08    0.16    0.02    0.00   48.28    1.24    4.70    0.57    2.08    0.00    0.00    0.00    0.27     0.00    0.00    0.00    0.00
  196    0.00    0.00    0.06    0.16    0.01    0.00   47.06    1.50    5.70    0.25    0.00    0.00    0.00    0.00    0.19     0.00    0.00    0.00    0.00
  197    0.00    0.00    0.05    0.16    0.01    0.00   46.10    1.23    6.58    0.22    0.00    0.00    0.00    0.00    0.30     0.00    0.00    0.00    0.00
  198    0.25    0.02    0.04    0.16    0.00    0.00   45.42    1.05    6.34    0.23    0.07    0.00    0.00    0.00    0.25     0.00    0.00    0.00    0.00
  199    0.20    0.02    0.04    0.16    0.06    0.00   44.50    1.22    6.03    0.21    0.00    0.00    0.00    0.01    0.20     0.00    0.00    0.00    0.00
  200    0.00    0.00    0.03    0.16    0.00    0.00   43.74    1.03    6.19    0.19    0.00    0.00    0.00    0.00    0.24     0.00    0.00    0.00    0.00
  201    0.00    0.00    0.02    0.16    0.00    0.00   42.85    1.18    5.85    0.18    0.00    0.00    0.00    0.00    0.16     0.00    0.00    0.00    0.00
  202    0.00    0.00    0.02    0.15    0.00    0.00   42.08    1.06    6.30    0.18    0.00    0.00    0.00    0.00    0.18     0.00    0.00    0.00    0.00
  203    0.00    0.00    0.02    0.15    0.00    0.00   41.45    0.90    6.06    0.17    0.00    0.00    0.00    0.00    0.23     0.00    0.00    0.00    0.00
  204    0.00    0.00    0.01    0.15    0.00    0.00   40.53    1.18    4.97    0.17    0.00    0.00    0.00    0.00    0.21     0.00    0.00    0.00    0.00
  205    7.23    0.50    0.12    0.15    0.03    0.00   45.35    0.63    1.15    0.74    3.45    0.00    0.00    0.00    0.01     0.01    0.00    0.00    0.00
  206    0.00    0.03    0.09    0.14    0.01    0.00   44.97    1.07    5.05    0.29    0.00    0.00    0.00    0.00    0.35     0.00    0.00    0.00    0.00
  207    0.00    0.00    0.07    0.14    0.00    0.00   44.40    0.78    4.55    0.22    0.00    0.00    0.00    0.00    0.01     0.00    0.00    0.00    0.00
  208    0.77    0.04    0.07    0.14    0.00    0.00   44.30    0.82    4.71    0.25    0.04    0.00    0.00    0.00    0.10     0.00    0.00    0.00    0.00
  209    0.00    0.00    0.06    0.13    0.00    0.00   43.49    1.16    6.40    0.20    0.00    0.00    0.00    0.00    0.02     0.00    0.00    0.00    0.00
  210    0.00    0.00    0.04    0.13    0.01    0.00   42.74    1.03    6.05    0.18    0.00    0.00    0.00    0.00    0.30     0.00    0.00    0.00    0.00
  211    1.30    0.09    0.05    0.13    0.01    0.00   43.15    0.80    5.02    0.27    0.54    0.00    0.00    0.00    0.13     0.00    0.00    0.00    0.00
  212    0.00    0.00    0.04    0.12    0.01    0.00   42.59    0.82    6.80    0.17    0.00    0.00    0.00    0.00    0.09     0.00    0.00    0.00    0.00
    7   17.64    1.35    2.09    4.70    3.04    0.00   42.59   35.20  172.63    8.34    7.78    0.00    0.03    0.23    7.52     0.02    0.00    0.00    0.00
  213    0.00    0.00    0.03    0.12    0.05    0.00   41.52    1.28    4.92    0.15    0.00    0.00    0.00    0.00    0.12     0.00    0.00    0.00    0.00
  214    0.00    0.00    0.02    0.11    0.03    0.00   40.79    0.97    6.12    0.14    0.00    0.00    0.00    0.00    0.10     0.00    0.00    0.00    0.00
  215    0.00    0.00    0.02    0.11    0.30    0.00   39.73    1.02    6.04    0.14    0.00    0.00    0.00    0.07    0.20     0.00    0.00    0.00    0.00
  216    0.00    0.00    0.02    0.09    0.18    0.00   38.93    0.89    6.70    0.12    0.00    0.00    0.00    0.04    1.53     0.00    0.00    0.00    0.00
  217    0.00    0.00    0.02    0.09    0.02    0.00   38.46    0.71    6.49    0.11    0.00    0.00    0.00    0.00    0.64     0.00    0.00    0.00    0.00
  218    0.00    0.00    0.01    0.08    0.02    0.00   37.71    1.01    5.39    0.10    0.00    0.00    0.00    0.01    0.40     0.00    0.00    0.00    0.00
  219    0.00    0.00    0.01    0.08    0.00    0.00   37.16    0.81    6.35    0.09    0.00    0.00    0.00    0.00    0.43     0.00    0.00    0.00    0.00
  220    0.00    0.00    0.01    0.07    0.00    0.00   36.74    0.68    6.27    0.09    0.00    0.00    0.00    0.00    0.09     0.00    0.00    0.00    0.00
  221    0.00    0.00    0.01    0.07    0.00    0.00   35.87    1.12    4.42    0.09    0.00    0.00    0.00    0.00    0.05     0.00    0.00    0.00    0.00
  222    0.00    0.00    0.01    0.06    0.00    0.00   35.43    0.66    4.45    0.08    0.00    0.00    0.00    0.00    0.04     0.00    0.00    0.00    0.00
  223    0.00    0.00    0.01    0.06    0.00    0.00   34.96    0.71    4.73    0.07    0.00    0.00    0.00    0.00    0.02     0.00    0.00    0.00    0.00
  224    0.00    0.00    0.01    0.05    0.00    0.00   34.65    0.52    4.92    0.06    0.00    0.00    0.00    0.00    0.03     0.00    0.00    0.00    0.00
  225    0.00    0.00    0.01    0.05    0.00    0.00   34.35    0.52    5.00    0.06    0.00    0.00    0.00    0.00    0.01     0.00    0.00    0.00    0.00
  226    0.00    0.00    0.00    0.04    0.00    0.00   34.12    0.45    5.44    0.05    0.00    0.00    0.00    0.00    0.02     0.00    0.00    0.00    0.00
  227    1.78    0.14    0.04    0.03    0.01    0.00   35.11    0.68    5.42    0.21    1.47    0.00    0.00    0.00    0.02     0.00    0.00    0.00    0.00
  228    0.00    0.00    0.03    0.03    0.00    0.00   34.64    0.71    5.89    0.07    0.00    0.00    0.00    0.00    0.06     0.00    0.00    0.00    0.00
  229    0.00    0.00    0.02    0.03    0.00    0.00   34.28    0.60    4.98    0.06    0.00    0.00    0.00    0.00    0.05     0.00    0.00    0.00    0.00
  230    0.00    0.00    0.02    0.02    0.00    0.00   33.95    0.57    7.15    0.04    0.00    0.00    0.00    0.00    0.11     0.00    0.00    0.00    0.00
  231    0.00    0.00    0.01    0.02    0.00    0.00   33.57    0.62    5.53    0.04    0.00    0.00    0.00    0.00    0.07     0.00    0.00    0.00    0.00
  232    0.00    0.00    0.01    0.02    0.00    0.00   33.21    0.58    5.04    0.04    0.00    0.00    0.00    0.00    0.04     0.00    0.00    0.00    0.00
  233    6.65    0.57    0.11    0.02    0.05    0.00   37.12    0.54    2.35    0.66    3.82    0.01    0.00    0.00    0.00     0.01    0.00    0.00    0.00
  234    1.55    0.36    0.10    0.02    0.03    0.00   38.08    0.71    3.21    0.50    2.11    0.00    0.00    0.00    0.01     0.02    0.00    0.00    0.00
  235    3.12    0.68    0.11    0.02    0.02    0.00   39.48    1.08    4.03    0.78    2.99    0.00    0.00    0.00    0.01     0.01    0.00    0.00    0.00
  236    3.31    0.86    0.10    0.02    0.02    0.00   40.16    1.29    4.87    0.93    1.29    0.00    0.00    0.00    0.01     0.01    0.00    0.00    0.00
  237    6.30    1.65    0.14    0.02    0.05    0.00   42.90    0.81    2.95    1.69    5.60    0.01    0.00    0.00    0.03     0.02    0.00    0.00    0.00
  238   14.16    3.50    0.35    0.02    0.17    0.00   50.76    1.29    2.07    3.62   14.87    0.01    0.00    0.01    0.01     0.16    0.00    0.02    0.00
  239    0.00    0.00    0.26    0.02    0.08    0.00   49.51    1.42    4.77    0.69    0.00    0.00    0.00    0.00    0.01     0.02    0.00    0.00    0.00
  240    0.00    0.00    0.20    0.02    0.13    0.00   48.57    1.05    5.95    0.32    0.00    0.00    0.00    0.00    0.08     0.01    0.00    0.00    0.00
  241    0.00    0.00    0.16    0.02    0.30    0.00   47.51    1.01    5.39    0.21    0.00    0.00    0.00    0.02    0.07     0.00    0.00    0.00    0.00
  242    0.00    0.00    0.13    0.02    0.16    0.00   46.36    1.26    5.49    0.16    0.00    0.00    0.00    0.01    0.10     0.00    0.00    0.00    0.00
  243    0.00    0.00    0.10    0.02    0.09    0.00   45.39    1.17    6.79    0.13    0.00    0.00    0.00    0.00    0.08     0.00    0.00    0.00    0.00
    8   36.85    7.76    2.08    1.49    1.71    0.00   45.39   26.76  159.09   11.50   32.17    0.02    0.01    0.18    4.44     0.25    0.00    0.03    0.00
  244    3.85    0.17    0.12    0.02    0.10    0.00   46.53    0.45    2.26    0.29    0.66    0.00    0.00    0.00    0.01     0.00    0.00    0.00    0.00
  245    0.76    0.37    0.12    0.02    0.05    0.00   47.56    0.83    3.38    0.51    2.76    0.00    0.00    0.00    0.01     0.00    0.00    0.00    0.00
  246    0.00    0.00    0.10    0.02    0.02    0.00   47.14    0.56    3.82    0.15    0.00    0.00    0.00    0.00    0.01     0.00    0.00    0.00    0.00
  247    0.61    0.07    0.08    0.02    0.00    0.00   47.14    0.52    3.47    0.18    0.32    0.00    0.00    0.00    0.01     0.00    0.00    0.00    0.00
  248    0.02    0.00    0.07    0.02    0.01    0.00   46.52    0.81    3.49    0.10    0.00    0.00    0.00    0.00    0.01     0.00    0.00    0.00    0.00
  249    0.00    0.00    0.05    0.02    0.00    0.00   46.14    0.55    5.08    0.08    0.00    0.00    0.00    0.00    0.01     0.00    0.00    0.00    0.00
  250    0.00    0.00    0.04    0.02    0.00    0.00   45.63    0.67    3.33    0.07    0.00    0.00    0.00    0.00    0.00     0.00    0.00    0.00    0.00
  251    0.00    0.00    0.03    0.03    0.00    0.00   45.34    0.46    3.70    0.07    0.00    0.00    0.00    0.00    0.01     0.00    0.00    0.00    0.00
  252    0.00    0.00    0.03    0.03    0.00    0.00   44.79    0.75    4.66    0.06    0.00    0.00    0.00    0.00    0.01     0.00    0.00    0.00    0.00
  253    0.00    0.00    0.02    0.03    0.00    0.00   44.34    0.62    3.98    0.05    0.00    0.00    0.00    0.00    0.00     0.00    0.00    0.00    0.00
  254    0.00    0.00    0.02    0.02    0.00    0.00   43.99    0.52    3.70    0.05    0.00    0.00    0.00    0.00    0.00     0.00    0.00    0.00    0.00
  255    2.60    0.28    0.09    0.02    0.14    0.00   45.43    0.67    3.83    0.36    0.10    0.00    0.00    0.00    0.00     0.01    0.00    0.00    0.00
  256    0.09    0.00    0.06    0.03    0.05    0.00   45.18    0.42    3.14    0.13    0.00    0.00    0.00    0.00    0.00     0.00    0.00    0.00    0.00
  257    0.00    0.00    0.05    0.03    0.02    0.00   44.79    0.53    3.38    0.08    0.00    0.00    0.00    0.00    0.01     0.00    0.00    0.00    0.00
  258    0.00    0.00    0.04    0.03    0.00    0.00   44.28    0.67    3.22    0.07    0.00    0.00    0.00    0.00    0.03     0.00    0.00    0.00    0.00
  259    0.00    0.00    0.03    0.03    0.00    0.00   43.98    0.46    3.87    0.06    0.00    0.00    0.00    0.00    0.04     0.00    0.00    0.00    0.00
  260    0.00    0.00    0.02    0.03    0.00    0.00   43.69    0.45    3.62    0.05    0.00    0.00    0.00    0.00    0.04     0.00    0.00    0.00    0.00
  261    8.11    0.08    0.07    0.03    0.10    0.00   44.97    0.40    0.83    0.17    0.18    0.00    0.00    0.00    0.00     0.00    0.00    0.00    0.00
  262    0.00    1.92    0.12    0.03    0.04    0.00   47.65    1.04    3.70    1.93   10.85    0.00    0.00    0.00    0.02     0.06    0.00    0.01    0.00
  263    0.00    0.00    0.08    0.03    0.01    0.00   47.19    0.61    3.42    0.24    0.00    0.00    0.00    0.00    0.01     0.01    0.00    0.00    0.00
  264    0.00    0.00    0.06    0.03    0.00    0.00   46.87    0.48    3.82    0.11    0.00    0.00    0.00    0.00    0.01     0.00    0.00    0.00    0.00
  265    0.00    0.00    0.05    0.02    0.00    0.00   46.31    0.74    3.42    0.08    0.00    0.00    0.00    0.00    0.01     0.00    0.00    0.00    0.00
  266    0.00    0.00    0.04    0.02    0.00    0.00   45.95    0.55    5.17    0.07    0.00    0.00    0.00    0.00    0.01     0.00    0.00    0.00    0.00
  267    0.00    0.00    0.03    0.02    0.01    0.00   45.61    0.51    5.09    0.06    0.00    0.00    0.00    0.00    0.00     0.00    0.00    0.00    0.00
  268    0.00    0.00    0.03    0.02    0.00    0.00   45.36    0.42    3.70    0.05    0.00    0.00    0.00    0.00    0.00     0.00    0.00    0.00    0.00
  269    0.00    0.00    0.02    0.02    0.00    0.00   45.07    0.45    3.25    0.05    0.00    0.00    0.00    0.00    0.00     0.00    0.00    0.00    0.00
  270    0.91    0.05    0.03    0.02    0.02    0.00   45.41    0.55    2.98    0.10    0.40    0.00    0.00    0.00    0.00     0.00    0.00    0.00    0.00
  271    0.00    0.00    0.03    0.02    0.05    0.00   44.94    0.59    4.13    0.06    0.00    0.00    0.00    0.00    0.00     0.00    0.00    0.00    0.00
  272    0.00    0.00    0.02    0.02    0.04    0.00   44.55    0.56    5.43    0.05    0.00    0.00    0.00    0.00    0.00     0.00    0.00    0.00    0.00
  273    0.00    0.00    0.02    0.02    0.01    0.00   44.18    0.54    4.26    0.04    0.00    0.00    0.00    0.00    0.00     0.00    0.00    0.00    0.00
    9   16.95    2.93    1.58    0.71    0.66    0.00   44.18   17.38  111.13    5.38   15.28    0.01    0.01    0.02    0.26     0.09    0.00    0.01    0.00
  274    0.00    0.00    0.01    0.02    0.00    0.00   44.04    0.23    2.41    0.04    0.00    0.00    0.00    0.00    0.00     0.00    0.00    0.00    0.00
  275    0.00    0.00    0.01    0.02    0.00    0.00   43.88    0.28    2.46    0.04    0.00    0.00    0.00    0.00    0.00     0.00    0.00    0.00    0.00
  276    1.43    0.01    0.04    0.02    0.00    0.00   44.60    0.31    1.49    0.07    0.03    0.00    0.00    0.00    0.00     0.00    0.00    0.00    0.00
  277    0.00    0.14    0.03    0.02    0.00    0.00   44.55    0.39    3.13    0.17    0.93    0.00    0.00    0.00    0.00     0.00    0.00    0.00    0.00
  278    0.00    0.00    0.02    0.02    0.00    0.00   44.39    0.28    2.84    0.06    0.00    0.00    0.00    0.00    0.00     0.00    0.00    0.00    0.00
  279    0.00    0.00    0.02    0.02    0.00    0.00   44.26    0.22    1.58    0.04    0.00    0.00    0.00    0.00    0.00     0.00    0.00    0.00    0.00
  280    0.00    0.00    0.01    0.02    0.00    0.00   44.16    0.19    1.54    0.04    0.00    0.00    0.00    0.00    0.00     0.00    0.00    0.00    0.00
  281    0.00    0.00    0.01    0.02    0.00    0.00   44.10    0.13    1.07    0.04    0.00    0.00    0.00    0.00    0.00     0.00    0.00    0.00    0.00
  282    0.62    0.00    0.01    0.02    0.00    0.00   44.02    0.15    1.27    0.03    0.00    0.00    0.00    0.00    0.00     0.00    0.00    0.00    0.00
  283    0.00    0.00    0.01    0.02    0.00    0.00   43.96    0.15    1.19    0.03    0.00    0.00    0.00    0.00    0.00     0.00    0.00    0.00    0.00
  284    2.17    0.05    0.02    0.02    0.01    0.00   44.08    0.26    2.52    0.09    0.34    0.00    0.00    0.00    0.00     0.00    0.00    0.00    0.00
  285    0.00    1.53    0.01    0.02    0.00    0.00   44.42    0.60    3.08    1.27    0.36    0.02    0.00    0.00    0.00     0.21    0.00    0.03    0.00
  286    1.50    0.87    0.01    0.02    0.00    0.00   44.40    0.68    2.88    0.98    5.23    0.00    0.00    0.00    0.00     0.05    0.00    0.01    0.00
  287    0.14    0.00    0.01    0.02    0.02    0.00   44.02    0.59    2.70    0.19    0.02    0.00    0.00    0.00    0.00     0.01    0.00    0.00    0.00
  288    1.65    0.05    0.05    0.02    0.01    0.00   45.06    0.43    1.76    0.15    0.06    0.00    0.00    0.00    0.00     0.00    0.00    0.00    0.00
  289    0.00    0.00    0.03    0.02    0.00    0.00   44.89    0.28    2.09    0.07    0.00    0.00    0.00    0.00    0.00     0.00    0.00    0.00    0.00
  290    0.56    0.00    0.03    0.02    0.00    0.00   44.80    0.15    1.01    0.05    0.00    0.00    0.00    0.00    0.00     0.00    0.00    0.00    0.00
  291   13.36    0.26    0.07    0.02    0.17    0.00   46.29    0.05    0.07    0.33    1.26    0.00    0.00    0.00    0.00     0.01    0.00    0.00    0.00
  292    0.04    1.56    0.11    0.02    0.22    0.00   47.89    0.41    0.87    1.44    1.47    0.01    0.00    0.01    0.00     0.16    0.00    0.02    0.00
  293    2.15    0.00    0.09    0.02    0.08    0.00   47.77    0.11    0.48    0.33    0.00    0.00    0.00    0.00    0.00     0.03    0.00    0.00    0.00
  294    5.31    0.00    0.07    0.02    0.03    0.00   47.73    0.03    0.05    0.15    0.00    0.00    0.00    0.00    0.00     0.01    0.00    0.00    0.00
  295   10.88    0.00    0.06    0.02    0.01    0.00   47.71    0.06    0.22    0.09    0.00    0.00    0.00    0.00    0.00     0.00    0.00    0.00    0.00
  296    0.00    0.23    0.05    0.02    0.07    0.00   48.00    0.25    0.97    0.27    0.49    0.00    0.00    0.00    0.00     0.02    0.00    0.00    0.00
  297    0.00    1.59    0.06    0.02    0.16    0.00   48.73    0.29    0.90    1.44    1.93    0.00    0.00    0.00    0.00     0.16    0.00    0.02    0.00
  298    1.23    6.74    0.08    0.02    0.27    0.00   51.48    0.98    1.76    6.06   12.20    0.01    0.00    0.00    0.00     0.71    0.00    0.09    0.00
  299    0.00    2.48    0.07    0.02    0.31    0.00   52.24    0.79    1.30    2.92    1.68    0.01    0.00    0.02    0.00     0.33    0.00    0.04    0.00
  300    0.00    1.21    0.06    0.02    0.11    0.00   52.65    0.79    1.32    1.56    1.89    0.00    0.00    0.01    0.00     0.16    0.00    0.02    0.00
  301    0.09    0.06    0.05    0.02    0.04    0.00   52.32    0.60    1.06    0.44    0.00    0.00    0.00    0.00    0.00     0.05    0.00    0.01    0.00
  302    0.00    0.01    0.04    0.02    0.01    0.00   51.56    0.92    1.77    0.17    0.01    0.00    0.00    0.00    0.00     0.01    0.00    0.00    0.00
  303    1.54    0.00    0.03    0.02    0.00    0.00   51.15    0.48    0.90    0.09    0.00    0.00    0.00    0.00    0.00     0.00    0.00    0.00    0.00
  304    1.75    0.03    0.03    0.02    0.03    0.00   51.40    0.15    0.39    0.10    0.02    0.00    0.00    0.00    0.00     0.00    0.00    0.00    0.00
   10   44.42   16.82    1.19    0.61    1.56    0.00   51.40   11.20   47.08   18.75   27.93    0.06    0.01    0.05    0.00     1.93    0.00    0.24    0.00
  305    0.79    0.00    0.02    0.02    0.01    0.00   51.38    0.04    0.10    0.06    0.00    0.00    0.00    0.00    0.00     0.00    0.00    0.00    0.00
  306    5.25    0.00    0.02    0.03    0.00    0.00   51.33    0.07    0.23    0.05    0.00    0.00    0.00    0.00    0.00     0.00    0.00    0.00    0.00
  307    0.88    0.00    0.01    0.03    0.00    0.00   51.35    0.02    0.03    0.04    0.00    0.00    0.00    0.00    0.00     0.00    0.00    0.00    0.00
  308    0.28    0.00    0.01    0.03    0.00    0.00   51.24    0.17    0.54    0.04    0.00    0.00    0.00    0.00    0.00     0.00    0.00    0.00    0.00
  309    0.42    0.00    0.01    0.03    0.00    0.00   51.18    0.10    0.26    0.04    0.00    0.00    0.00    0.00    0.00     0.00    0.00    0.00    0.00
  310    1.90    0.00    0.01    0.03    0.00    0.00   51.08    0.14    0.44    0.04    0.00    0.00    0.00    0.00    0.00     0.00    0.00    0.00    0.00
  311    0.94    0.00    0.01    0.03    0.00    0.00   50.89    0.23    0.77    0.04    0.00    0.00    0.00    0.00    0.00     0.00    0.00    0.00    0.00
  312    0.00    0.00    0.00    0.03    0.00    0.00   50.79    0.14    0.46    0.04    0.00    0.00    0.00    0.00    0.00     0.00    0.00    0.00    0.00
  313    0.00    0.00    0.00    0.03    0.00    0.00   50.70    0.14    0.44    0.03    0.00    0.00    0.00    0.00    0.00     0.00    0.00    0.00    0.00
  314    0.27    0.00    0.00    0.03    0.00    0.00   50.67    0.06    0.21    0.03    0.00    0.00    0.00    0.00    0.00     0.00    0.00    0.00    0.00
  315    1.89    0.00    0.00    0.03    0.00    0.00   50.67    0.02    0.02    0.03    0.00    0.00    0.00    0.00    0.00     0.00    0.00    0.00    0.00
  316    0.29    0.00    0.00    0.03    0.00    0.00   50.62    0.09    0.27    0.03    0.00    0.00    0.00    0.00    0.00     0.00    0.00    0.00    0.00
  317    0.00    0.00    0.00    0.03    0.00    0.00   50.53    0.13    0.44    0.03    0.00    0.00    0.00    0.00    0.00     0.00    0.00    0.00    0.00
  318    2.11    0.00    0.00    0.03    0.00    0.00   50.50    0.03    0.13    0.03    0.00    0.00    0.00    0.00    0.00     0.00    0.00    0.00    0.00
  319    4.26    0.00    0.00    0.03    0.00    0.00   50.49    0.03    0.10    0.03    0.00    0.00    0.00    0.00    0.00     0.00    0.00    0.00    0.00
  320    5.83    0.00    0.00    0.03    0.00    0.00   50.49    0.02    0.02    0.03    0.00    0.00    0.00    0.00    0.00     0.00    0.00    0.00    0.00
  321    2.51    0.00    0.00    0.03    0.00    0.00   50.49    0.02    0.03    0.03    0.00    0.00    0.00    0.00    0.00     0.00    0.00    0.00    0.00
  322    0.65    0.00    0.00    0.03    0.00    0.00   50.47    0.05    0.19    0.03    0.00    0.00    0.00    0.00    0.00     0.00    0.00    0.00    0.00
  323    0.00    0.00    0.00    0.03    0.00    0.00   50.43    0.07    0.27    0.03    0.00    0.00    0.00    0.00    0.00     0.00    0.00    0.00    0.00
  324    0.00    0.00    0.00    0.03    0.00    0.00   50.34    0.14    0.61    0.03    0.00    0.00    0.00    0.00    0.00     0.00    0.00    0.00    0.00
  325    0.00    0.00    0.00    0.03    0.00    0.00   50.33    0.04    0.06    0.03    0.00    0.00    0.00    0.00    0.00     0.00    0.00    0.00    0.00
  326    0.00    0.00    0.00    0.03    0.00    0.00   50.33    0.04    0.07    0.03    0.00    0.00    0.00    0.00    0.00     0.00    0.00    0.00    0.00
  327    0.00    0.00    0.00    0.03    0.00    0.00   50.33    0.04    0.08    0.03    0.00    0.00    0.00    0.00    0.00     0.00    0.00    0.00    0.00
  328    0.00    0.00    0.00    0.03    0.00    0.00   50.26    0.11    0.48    0.03    0.00    0.00    0.00    0.00    0.00     0.00    0.00    0.00    0.00
  329    0.00    0.00    0.00    0.03    0.00    0.00   50.20    0.10    0.38    0.03    0.00    0.00    0.00    0.00    0.00     0.00    0.00    0.00    0.00
  330    0.00    0.00    0.00    0.03    0.00    0.00   50.17    0.07    0.28    0.03    0.00    0.00    0.00    0.00    0.00     0.00    0.00    0.00    0.00
  331    0.00    0.00    0.00    0.03    0.00    0.00   50.17    0.05    0.07    0.03    0.00    0.00    0.00    0.00    0.00     0.00    0.00    0.00    0.00
  332    0.00    0.00    0.00    0.02    0.00    0.00   50.16    0.04    0.13    0.03    0.00    0.00    0.00    0.00    0.00     0.00    0.00    0.00    0.00
  333    0.00    0.00    0.00    0.02    0.00    0.00   50.13    0.07    0.23    0.03    0.00    0.00    0.00    0.00    0.00     0.00    0.00    0.00    0.00
  334    0.00    0.00    0.00    0.02    0.00    0.00   50.12    0.06    0.17    0.03    0.00    0.00    0.00    0.00    0.00     0.00    0.00    0.00    0.00
   11   28.25    0.00    0.12    0.80    0.01    0.00   50.12    2.35    7.52    1.04    0.00    0.00    0.00    0.00    0.00     0.00    0.00    0.00    0.00
  335    0.00    0.00    0.00    0.02    0.00    0.00   50.11    0.04    0.11    0.03    0.00    0.00    0.00    0.00    0.00     0.00    0.00    0.00    0.00
  336    0.74    0.00    0.00    0.02    0.00    0.00   50.11    0.02    0.03    0.03    0.00    0.00    0.00    0.00    0.00     0.00    0.00    0.00    0.00
  337    0.00    0.00    0.00    0.02    0.00    0.00   50.06    0.09    0.43    0.03    0.00    0.00    0.00    0.00    0.00     0.00    0.00    0.00    0.00
  338    0.00    0.00    0.00    0.02    0.00    0.00   49.99    0.09    0.47    0.03    0.00    0.00    0.00    0.00    0.00     0.00    0.00    0.00    0.00
  339    0.00    0.00    0.00    0.02    0.00    0.00   49.99    0.04    0.07    0.02    0.00    0.00    0.00    0.00    0.00     0.00    0.00    0.00    0.00
  340    0.54    0.00    0.00    0.02    0.00    0.00   49.99    0.02    0.03    0.02    0.00    0.00    0.00    0.00    0.00     0.00    0.00    0.00    0.00
  341    0.18    0.00    0.00    0.02    0.00    0.00   49.99    0.03    0.05    0.02    0.00    0.00    0.00    0.00    0.00     0.00    0.00    0.00    0.00
  342    1.87    0.00    0.00    0.02    0.00    0.00   49.99    0.01    0.02    0.02    0.00    0.00    0.00    0.00    0.00     0.00    0.00    0.00    0.00
  343    4.08    0.00    0.00    0.02    0.00    0.00   49.98    0.02    0.05    0.02    0.00    0.00    0.00    0.00    0.00     0.00    0.00    0.00    0.00
  344    0.74    0.00    0.00    0.02    0.00    0.00   49.98    0.01    0.04    0.02    0.00    0.00    0.00    0.00    0.00     0.00    0.00    0.00    0.00
  345    0.00    0.00    0.00    0.02    0.00    0.00   49.92    0.09    0.44    0.02    0.00    0.00    0.00    0.00    0.00     0.00    0.00    0.00    0.00
  346    0.00    0.00    0.00    0.02    0.00    0.00   49.92    0.03    0.05    0.02    0.00    0.00    0.00    0.00    0.00     0.00    0.00    0.00    0.00
  347    0.00    0.00    0.00    0.02    0.00    0.00   49.92    0.03    0.05    0.02    0.00    0.00    0.00    0.00    0.00     0.00    0.00    0.00    0.00
  348    0.00    0.00    0.00    0.02    0.00    0.00   49.91    0.05    0.15    0.02    0.00    0.00    0.00    0.00    0.00     0.00    0.00    0.00    0.00
  349    0.00    0.00    0.00    0.02    0.00    0.00   49.89    0.06    0.20    0.02    0.00    0.00    0.00    0.00    0.00     0.00    0.00    0.00    0.00
  350    0.00    0.00    0.00    0.02    0.00    0.00   49.87    0.07    0.22    0.02    0.00    0.00    0.00    0.00    0.00     0.00    0.00    0.00    0.00
  351    0.40    0.00    0.00    0.02    0.00    0.00   49.87    0.02    0.03    0.02    0.00    0.00    0.00    0.00    0.00     0.00    0.00    0.00    0.00
  352    0.83    0.00    0.00    0.02    0.00    0.00   49.87    0.02    0.02    0.02    0.00    0.00    0.00    0.00    0.00     0.00    0.00    0.00    0.00
  353    1.12    0.00    0.00    0.02    0.00    0.00   49.87    0.02    0.04    0.02    0.00    0.00    0.00    0.00    0.00     0.00    0.00    0.00    0.00
  354    0.09    0.00    0.00    0.02    0.00    0.00   49.83    0.07    0.25    0.02    0.00    0.00    0.00    0.00    0.00     0.00    0.00    0.00    0.00
  355    0.93    0.00    0.00    0.02    0.00    0.00   49.83    0.01    0.02    0.02    0.00    0.00    0.00    0.00    0.00     0.00    0.00    0.00    0.00
  356    0.00    0.00    0.00    0.01    0.00    0.00   49.78    0.09    0.43    0.02    0.00    0.00    0.00    0.00    0.00     0.00    0.00    0.00    0.00
  357    0.23    0.00    0.00    0.01    0.00    0.00   49.77    0.04    0.10    0.02    0.00    0.00    0.00    0.00    0.00     0.00    0.00    0.00    0.00
  358    0.40    0.00    0.00    0.01    0.00    0.00   49.76    0.04    0.09    0.02    0.00    0.00    0.00    0.00    0.00     0.00    0.00    0.00    0.00
  359    0.05    0.00    0.00    0.01    0.00    0.00   49.73    0.08    0.32    0.02    0.00    0.00    0.00    0.00    0.00     0.00    0.00    0.00    0.00
  360    0.00    0.47    0.00    0.01    0.00    0.00   49.93    0.37    1.44    0.41    0.85    0.00    0.00    0.00    0.00     0.04    0.00    0.00    0.00
  361    0.14    0.00    0.00    0.01    0.00    0.00   49.93    0.04    0.05    0.07    0.00    0.00    0.00    0.00    0.00     0.01    0.00    0.00    0.00
  362    0.38    0.00    0.00    0.01    0.00    0.00   49.93    0.03    0.06    0.03    0.00    0.00    0.00    0.00    0.00     0.00    0.00    0.00    0.00
  363    0.03    0.00    0.00    0.01    0.00    0.00   49.85    0.11    0.54    0.02    0.00    0.00    0.00    0.00    0.00     0.00    0.00    0.00    0.00
  364    0.94    0.00    0.00    0.01    0.00    0.00   49.85    0.02    0.05    0.01    0.00    0.00    0.00    0.00    0.00     0.00    0.00    0.00    0.00
  365    0.00    0.00    0.00    0.01    0.00    0.00   49.85    0.04    0.06    0.01    0.00    0.00    0.00    0.00    0.00     0.00    0.00    0.00    0.00
   12   13.69    0.47    0.00    0.53    0.00    0.00   49.85    1.69    5.92    1.10    0.85    0.00    0.00    0.00    0.00     0.05    0.00    0.01    0.00

 2015  386.09  183.32   13.26   11.97   22.25    0.00   49.85  172.10  764.22  209.65  411.34    1.23    0.15    1.05   18.49    32.53    0.02    4.00    0.00
1
    SWAT Sep 7    VER 2018/Rev 670                                                  

    General Input/Output section (file.cio):                                        
    5/13/2020 12:00:00 AM ARCGIS-SWAT interface AV                                  
                                                                                    
Annual Summary for Watershed in year    7 of simulation

UNIT                                    PERCO    TILE                           WATER     SED     NO3     NO3     NO3     NO3        N       P       P
TIME     PREC    SURQ    LATQ     GWQ    LATE       Q     SW       ET     PET   YIELD   YIELD    SURQ    LATQ    PERC    CROP  ORGANIC SOLUBLE ORGANIC TILENO3
         (mm)    (mm)    (mm)    (mm)    (mm)    (mm)    (mm)    (mm)    (mm)    (mm)   (t/ha)  ------------------(kg nutrient/ha)-------------------- (kg/ha)
    1    0.00    0.00    0.00    0.01    0.00    0.00   49.85    0.03    0.04    0.01    0.00    0.00    0.00    0.00    0.00     0.00    0.00    0.00    0.00
    2    0.00    0.00    0.00    0.01    0.00    0.00   49.85    0.03    0.04    0.01    0.00    0.00    0.00    0.00    0.00     0.00    0.00    0.00    0.00
    3    1.02    0.00    0.00    0.01    0.00    0.00   49.85    0.01    0.02    0.01    0.00    0.00    0.00    0.00    0.00     0.00    0.00    0.00    0.00
    4    0.03    0.00    0.00    0.01    0.00    0.00   49.85    0.02    0.05    0.01    0.00    0.00    0.00    0.00    0.00     0.00    0.00    0.00    0.00
    5    0.12    0.00    0.00    0.01    0.00    0.00   49.82    0.05    0.25    0.01    0.00    0.00    0.00    0.00    0.00     0.00    0.00    0.00    0.00
    6    0.64    0.00    0.00    0.01    0.00    0.00   49.82    0.01    0.03    0.01    0.00    0.00    0.00    0.00    0.00     0.00    0.00    0.00    0.00
    7    0.70    0.00    0.00    0.01    0.00    0.00   49.82    0.01    0.02    0.01    0.00    0.00    0.00    0.00    0.00     0.00    0.00    0.00    0.00
    8    0.00    0.00    0.00    0.01    0.00    0.00   49.78    0.07    0.34    0.01    0.00    0.00    0.00    0.00    0.00     0.00    0.00    0.00    0.00
    9    0.17    0.00    0.00    0.01    0.00    0.00   49.77    0.03    0.09    0.01    0.00    0.00    0.00    0.00    0.00     0.00    0.00    0.00    0.00
   10    0.06    0.00    0.00    0.01    0.00    0.00   49.77    0.04    0.09    0.01    0.00    0.00    0.00    0.00    0.00     0.00    0.00    0.00    0.00
   11    0.05    0.00    0.00    0.01    0.00    0.00   49.73    0.06    0.24    0.01    0.00    0.00    0.00    0.00    0.00     0.00    0.00    0.00    0.00
   12    0.06    0.00    0.00    0.01    0.00    0.00   49.69    0.07    0.31    0.01    0.00    0.00    0.00    0.00    0.00     0.00    0.00    0.00    0.00
   13    0.00    0.00    0.00    0.01    0.00    0.00   49.69    0.03    0.04    0.01    0.00    0.00    0.00    0.00    0.00     0.00    0.00    0.00    0.00
   14    0.00    0.00    0.00    0.01    0.00    0.00   49.69    0.03    0.05    0.01    0.00    0.00    0.00    0.00    0.00     0.00    0.00    0.00    0.00
   15    0.54    0.00    0.00    0.01    0.00    0.00   49.69    0.02    0.02    0.01    0.00    0.00    0.00    0.00    0.00     0.00    0.00    0.00    0.00
   16    0.63    0.00    0.00    0.01    0.00    0.00   49.69    0.01    0.02    0.01    0.00    0.00    0.00    0.00    0.00     0.00    0.00    0.00    0.00
   17    0.00    0.00    0.00    0.01    0.00    0.00   49.64    0.08    0.42    0.01    0.00    0.00    0.00    0.00    0.00     0.00    0.00    0.00    0.00
   18    0.02    0.00    0.00    0.01    0.00    0.00   49.62    0.04    0.22    0.01    0.00    0.00    0.00    0.00    0.00     0.00    0.00    0.00    0.00
   19    0.15    0.00    0.00    0.01    0.00    0.00   49.61    0.03    0.10    0.01    0.00    0.00    0.00    0.00    0.00     0.00    0.00    0.00    0.00
   20    0.00    0.00    0.00    0.01    0.00    0.00   49.61    0.02    0.07    0.01    0.00    0.00    0.00    0.00    0.00     0.00    0.00    0.00    0.00
   21    0.00    0.00    0.00    0.01    0.00    0.00   49.59    0.03    0.16    0.01    0.00    0.00    0.00    0.00    0.00     0.00    0.00    0.00    0.00
   22    0.00    0.00    0.00    0.01    0.00    0.00   49.57    0.04    0.19    0.01    0.00    0.00    0.00    0.00    0.00     0.00    0.00    0.00    0.00
   23    0.00    0.00    0.00    0.01    0.00    0.00   49.57    0.02    0.08    0.01    0.00    0.00    0.00    0.00    0.00     0.00    0.00    0.00    0.00
   24    0.00    0.00    0.00    0.01    0.00    0.00   49.55    0.04    0.17    0.01    0.00    0.00    0.00    0.00    0.00     0.00    0.00    0.00    0.00
   25    0.00    0.00    0.00    0.01    0.00    0.00   49.55    0.02    0.06    0.01    0.00    0.00    0.00    0.00    0.00     0.00    0.00    0.00    0.00
   26    0.48    0.00    0.00    0.01    0.00    0.00   49.55    0.01    0.02    0.01    0.00    0.00    0.00    0.00    0.00     0.00    0.00    0.00    0.00
   27    1.29    0.00    0.00    0.01    0.00    0.00   49.54    0.03    0.13    0.01    0.00    0.00    0.00    0.00    0.00     0.00    0.00    0.00    0.00
   28    2.02    0.00    0.00    0.01    0.00    0.00   49.54    0.02    0.02    0.01    0.00    0.00    0.00    0.00    0.00     0.00    0.00    0.00    0.00
   29    0.76    0.00    0.00    0.01    0.00    0.00   49.52    0.04    0.21    0.01    0.00    0.00    0.00    0.00    0.00     0.00    0.00    0.00    0.00
   30    0.16    0.00    0.00    0.00    0.00    0.00   49.51    0.03    0.12    0.01    0.00    0.00    0.00    0.00    0.00     0.00    0.00    0.00    0.00
   31    0.16    0.00    0.00    0.00    0.00    0.00   49.45    0.08    0.49    0.01    0.00    0.00    0.00    0.00    0.00     0.00    0.00    0.00    0.00
    1    9.04    0.00    0.00    0.23    0.00    0.00   49.45    1.07    4.10    0.30    0.00    0.00    0.00    0.00    0.00     0.00    0.00    0.00    0.00
   32    0.00    0.00    0.00    0.00    0.00    0.00   49.37    0.16    0.89    0.01    0.00    0.00    0.00    0.00    0.00     0.00    0.00    0.00    0.00
   33    0.00    0.00    0.00    0.00    0.00    0.00   49.32    0.13    0.72    0.01    0.00    0.00    0.00    0.00    0.00     0.00    0.00    0.00    0.00
   34    0.00    0.00    0.00    0.00    0.00    0.00   49.32    0.07    0.11    0.01    0.00    0.00    0.00    0.00    0.00     0.00    0.00    0.00    0.00
   35    0.00    0.00    0.00    0.00    0.00    0.00   49.32    0.06    0.10    0.01    0.00    0.00    0.00    0.00    0.00     0.00    0.00    0.00    0.00
   36    0.00    0.00    0.00    0.00    0.00    0.00   49.27    0.12    0.78    0.01    0.00    0.00    0.00    0.00    0.00     0.00    0.00    0.00    0.00
   37    0.00    0.00    0.00    0.00    0.00    0.00   49.26    0.07    0.34    0.01    0.00    0.00    0.00    0.00    0.00     0.00    0.00    0.00    0.00
   38    0.90    0.00    0.00    0.00    0.00    0.00   49.26    0.03    0.05    0.01    0.00    0.00    0.00    0.00    0.00     0.00    0.00    0.00    0.00
   39    0.00    0.00    0.00    0.00    0.00    0.00   49.25    0.05    0.13    0.01    0.00    0.00    0.00    0.00    0.00     0.00    0.00    0.00    0.00
   40    0.00    0.00    0.00    0.00    0.00    0.00   49.25    0.04    0.08    0.00    0.00    0.00    0.00    0.00    0.00     0.00    0.00    0.00    0.00
   41    0.01    0.00    0.00    0.00    0.00    0.00   49.25    0.05    0.21    0.00    0.00    0.00    0.00    0.00    0.00     0.00    0.00    0.00    0.00
   42    0.00    0.00    0.00    0.00    0.00    0.00   49.24    0.05    0.26    0.00    0.00    0.00    0.00    0.00    0.00     0.00    0.00    0.00    0.00
   43    0.00    0.00    0.00    0.00    0.00    0.00   49.24    0.05    0.12    0.00    0.00    0.00    0.00    0.00    0.00     0.00    0.00    0.00    0.00
   44    0.11    0.00    0.00    0.00    0.00    0.00   49.22    0.08    0.55    0.00    0.00    0.00    0.00    0.00    0.00     0.00    0.00    0.00    0.00
   45    0.07    0.00    0.00    0.00    0.00    0.00   49.20    0.06    0.47    0.00    0.00    0.00    0.00    0.00    0.00     0.00    0.00    0.00    0.00
   46    1.76    0.00    0.00    0.00    0.00    0.00   49.20    0.03    0.07    0.00    0.00    0.00    0.00    0.00    0.00     0.00    0.00    0.00    0.00
   47    0.00    0.00    0.00    0.00    0.00    0.00   49.18    0.07    0.45    0.00    0.00    0.00    0.00    0.00    0.00     0.00    0.00    0.00    0.00
   48    0.00    0.00    0.00    0.00    0.00    0.00   49.18    0.04    0.18    0.00    0.00    0.00    0.00    0.00    0.00     0.00    0.00    0.00    0.00
   49    0.00    0.00    0.00    0.00    0.00    0.00   49.18    0.04    0.05    0.00    0.00    0.00    0.00    0.00    0.00     0.00    0.00    0.00    0.00
   50    0.00    0.00    0.00    0.00    0.00    0.00   49.18    0.04    0.17    0.00    0.00    0.00    0.00    0.00    0.00     0.00    0.00    0.00    0.00
   51    0.00    0.00    0.00    0.00    0.00    0.00   49.18    0.05    0.08    0.00    0.00    0.00    0.00    0.00    0.00     0.00    0.00    0.00    0.00
   52    0.00    0.00    0.00    0.00    0.00    0.00   49.18    0.06    0.19    0.00    0.00    0.00    0.00    0.00    0.00     0.00    0.00    0.00    0.00
   53    0.18    0.00    0.00    0.00    0.00    0.00   49.17    0.08    0.30    0.00    0.00    0.00    0.00    0.00    0.00     0.00    0.00    0.00    0.00
   54    1.08    0.00    0.00    0.00    0.00    0.00   49.17    0.04    0.07    0.00    0.00    0.00    0.00    0.00    0.00     0.00    0.00    0.00    0.00
   55    0.00    0.00    0.00    0.00    0.00    0.00   49.17    0.06    0.12    0.00    0.00    0.00    0.00    0.00    0.00     0.00    0.00    0.00    0.00
   56    0.00    0.00    0.00    0.00    0.00    0.00   49.12    0.13    1.18    0.00    0.00    0.00    0.00    0.00    0.00     0.00    0.00    0.00    0.00
   57    0.00    0.00    0.00    0.00    0.00    0.00   49.08    0.11    1.05    0.00    0.00    0.00    0.00    0.00    0.00     0.00    0.00    0.00    0.00
   58    0.00    0.00    0.00    0.00    0.00    0.00   49.07    0.06    0.49    0.00    0.00    0.00    0.00    0.00    0.00     0.00    0.00    0.00    0.00
   59    0.00    0.00    0.00    0.00    0.00    0.00   49.07    0.06    0.17    0.00    0.00    0.00    0.00    0.00    0.00     0.00    0.00    0.00    0.00
   60    0.00    0.00    0.00    0.00    0.00    0.00   49.07    0.10    0.76    0.00    0.00    0.00    0.00    0.00    0.00     0.00    0.00    0.00    0.00
    2    4.11    0.00    0.00    0.06    0.00    0.00   49.07    2.00   10.17    0.12    0.00    0.00    0.00    0.00    0.00     0.00    0.00    0.00    0.00
   61    0.03    7.04    0.00    0.00    0.00    0.00   52.16    0.46    1.20    5.89   16.14    0.02    0.00    0.00    0.00     3.61    0.00    0.45    0.00
   62    0.00    4.20    0.00    0.00    0.00    0.00   54.22    0.43    0.97    4.36    0.77    0.01    0.00    0.00    0.00     1.44    0.00    0.18    0.00
   63    0.00    0.12    0.00    0.00    0.00    0.00   54.21    0.27    0.65    0.84    0.17    0.00    0.00    0.00    0.00     0.26    0.00    0.03    0.00
   64    0.00    0.00    0.00    0.00    0.00    0.00   54.04    0.26    0.60    0.19    0.00    0.00    0.00    0.00    0.00     0.06    0.00    0.01    0.00
   65    0.00    0.00    0.00    0.00    0.00    0.00   53.90    0.26    0.58    0.05    0.00    0.00    0.00    0.00    0.00     0.02    0.00    0.00    0.00
   66    0.00    0.00    0.00    0.00    0.00    0.00   53.49    0.51    1.27    0.02    0.00    0.00    0.00    0.00    0.00     0.00    0.00    0.00    0.00
   67    0.00    0.31    0.00    0.00    0.00    0.00   53.49    0.38    0.91    0.27    0.63    0.00    0.00    0.00    0.00     0.04    0.00    0.01    0.00
   68    0.00    0.00    0.00    0.00    0.00    0.00   53.18    0.42    1.04    0.04    0.00    0.00    0.00    0.00    0.00     0.01    0.00    0.00    0.00
   69    0.09    0.00    0.00    0.00    0.00    0.00   53.10    0.15    0.33    0.01    0.00    0.00    0.00    0.00    0.00     0.00    0.00    0.00    0.00
   70    0.00    0.00    0.00    0.00    0.00    0.00   52.91    0.27    0.67    0.00    0.00    0.00    0.00    0.00    0.00     0.00    0.00    0.00    0.00
   71    1.77    0.00    0.00    0.00    0.00    0.00   52.91    0.03    0.04    0.00    0.00    0.00    0.00    0.00    0.00     0.00    0.00    0.00    0.00
   72    0.69    0.00    0.00    0.00    0.00    0.00   52.83    0.12    0.30    0.00    0.00    0.00    0.00    0.00    0.00     0.00    0.00    0.00    0.00
   73    1.92    0.00    0.00    0.00    0.00    0.00   52.83    0.03    0.05    0.00    0.00    0.00    0.00    0.00    0.00     0.00    0.00    0.00    0.00
   74    0.44    0.00    0.00    0.00    0.00    0.00   52.75    0.12    0.31    0.00    0.00    0.00    0.00    0.00    0.00     0.00    0.00    0.00    0.00
   75    1.87    0.00    0.00    0.00    0.00    0.00   52.75    0.04    0.05    0.00    0.00    0.00    0.00    0.00    0.00     0.00    0.00    0.00    0.00
   76    1.02    0.00    0.00    0.00    0.00    0.00   52.75    0.04    0.06    0.00    0.00    0.00    0.00    0.00    0.00     0.00    0.00    0.00    0.00
   77    1.93    0.00    0.00    0.00    0.00    0.00   52.75    0.03    0.04    0.00    0.00    0.00    0.00    0.00    0.00     0.00    0.00    0.00    0.00
   78    1.29    0.00    0.00    0.00    0.00    0.00   52.75    0.06    0.08    0.00    0.00    0.00    0.00    0.00    0.00     0.00    0.00    0.00    0.00
   79    0.00    0.13    0.00    0.00    0.00    0.00   52.57    0.55    1.49    0.11    0.24    0.00    0.00    0.00    0.00     0.02    0.00    0.00    0.00
   80    0.00    0.00    0.00    0.00    0.00    0.00   52.41    0.26    0.65    0.02    0.00    0.00    0.00    0.00    0.00     0.00    0.00    0.00    0.00
   81    0.00    0.30    0.00    0.00    0.00    0.00   52.38    0.36    0.97    0.26    0.59    0.00    0.00    0.00    0.00     0.04    0.00    0.01    0.00
[...]
     80  12   I-Bh-2c-   .279E+02   91.00   70.00    8.09    0.00    0.00    0.00    0.20  454.37  315.17   37.72   93.99 4082.06    0.29   37.72    0.00    0.00  315.17
     81  12   I-K-U-2c   .620E+02   91.00   60.00    8.46    0.00    0.00    0.00    0.20  454.37  316.01   37.57   93.67 3261.02    0.16   21.24    0.00    0.00  316.01
     82  13   I-K-U-2c   .156E+03   79.00   60.00    0.82    0.00    0.00    0.00    0.20  275.03  118.65    0.17  151.30   67.75    0.10   24.34    0.00    0.00  118.65
     83  13   I-K-U-2c   .209E+03   79.00   60.00    4.57    0.00    0.00    0.00    0.20  275.03  123.75    5.46  141.45  519.37    0.14   21.56    0.00    0.00  123.75
     84  13   I-K-U-2c   .767E+02   91.00   60.00    3.42    0.00    0.00    0.00    0.20  275.03  163.98    5.06   98.33  802.69    0.10   21.24    0.00    0.00  163.98
     85  13   I-K-U-2c   .863E+02   91.00   60.00    0.82    0.00    0.00    0.00    0.20  275.03  163.98    0.16  101.46  118.61    0.07   22.94    0.00    0.00  163.98
     86  13   I-K-U-2c   .813E+02   91.00   60.00    0.72    0.00    0.00    0.00    0.20  275.03  163.98    0.09  101.13   89.06    0.07   23.23    0.00    0.00  163.98
     87  13   I-K-U-2c   .160E+03   91.00   60.00    7.83    0.00    0.00    0.00    0.20  275.03  163.86    8.28   94.87 1436.87    0.14   21.24    0.00    0.00  163.86
     88  14   I-K-U-2c   .456E+01   91.00   60.00    0.46    0.00    0.00    0.00    0.20  263.11  156.50    0.06   92.12   34.55    0.07   23.32    0.00    0.00  156.50
     89  14   I-K-U-2c   .114E+01   91.00   60.00    3.50    0.00    0.00    0.00    0.20  263.11  156.40    2.68   90.70  627.25    0.10   21.27    0.00    0.00  156.40
     90  14   I-K-U-2c   .468E+01   91.00   60.00    0.54    0.00    0.00    0.00    0.20  263.11  156.64    0.07   92.07   41.53    0.07   23.43    0.00    0.00  156.64
     91  15   I-K-U-2c   .100E+03   79.00   60.00    0.78    0.00    0.00    0.00    0.20  174.99   52.99    0.11  118.58   26.46    0.10   24.42    0.00    0.00   52.99
     92  15   I-K-U-2c   .145E+03   79.00   60.00    4.89    0.00    0.00    0.00    0.20  174.99   52.44    4.66  114.31  203.43    0.13   25.08    0.00    0.00   52.44
     93  15   I-Y-2c-3   .437E+02   84.00   70.00    0.80    0.00    0.00    0.00    0.20  174.99   66.11    0.05  103.75   53.34    0.07   12.52    0.00    0.00   66.11
     94  15   I-Y-2c-3   .688E+02   84.00   70.00    6.47    0.00    0.00    0.00    0.20  174.99   65.95    2.37  101.53  616.25    0.09   10.86    0.00    0.00   65.95
     95  15   I-K-U-2c   .652E+02   91.00   60.00    0.75    0.00    0.00    0.00    0.20  174.99   87.80    0.08   76.38   46.20    0.06   23.79    0.00    0.00   87.80
     96  15   I-K-U-2c   .389E+02   91.00   60.00    4.25    0.00    0.00    0.00    0.20  174.99   87.73    5.09   74.34  549.43    0.11   21.24    0.00    0.00   87.73
     97  15   I-Y-2c-3   .278E+02   94.00   70.00    8.36    0.00    0.00    0.00    0.20  174.99   97.35    2.90   66.52 1675.19    0.18   10.84    0.00    0.00   97.35
     98  15   I-Y-2c-3   .176E+02   94.00   70.00    0.84    0.00    0.00    0.00    0.20  174.99   97.35    0.06   67.47   99.06    0.09   12.04    0.00    0.00   97.35
     99  15   GLACIER-   .457E+02   94.00   15.24   10.62    0.00    0.00    0.00    0.20  174.99  110.74   14.58   44.23    0.40    1.41    0.59    0.00    0.00  110.74
    100  15   I-K-U-2c   .417E+02   91.00   60.00    0.33    0.00    0.00    0.00    0.20  174.99   87.95    0.04   77.63   19.46    0.06   21.89    0.00    0.00   87.95
    101  15   I-K-U-2c   .371E+02   91.00   60.00    7.47    0.00    0.00    0.00    0.20  174.99   87.65    6.80   73.89  990.48    0.13   21.24    0.00    0.00   87.65
    102  15   I-Y-2c-3   .153E+02   94.00   70.00    0.31    0.00    0.00    0.00    0.20  174.99   97.34    0.01   67.93   26.35    0.09   11.11    0.00    0.00   97.34
    103  15   I-Y-2c-3   .339E+02   94.00   70.00   10.99    0.00    0.00    0.00    0.20  174.99   97.38    3.59   65.29 2116.70    0.19   10.84    0.00    0.00   97.38
    104  15   GLACIER-   .751E+02   92.00   15.24    6.95    0.00    0.00    0.00    0.20  174.99    0.00    0.00 1003.73    0.00    0.00    0.00    0.00    0.00    0.00
    105  15   GLACIER-   .182E+02   92.00   15.24    1.42    0.00    0.00    0.00    0.20  174.99    0.00    0.00 1003.73    0.00    0.00    0.00    0.00    0.00    0.00
    106  16   I-Bh-2c-   .156E+02   79.00   70.00    1.20    0.00    0.00    0.00    0.20  185.25   65.77    0.19  115.66   58.04    0.11   47.14    0.00    0.00   65.77
    107  16   I-Bh-2c-   .888E+02   79.00   70.00    6.22    0.00    0.00    0.00    0.20  185.25   64.71    6.39  110.16  331.89    0.14   37.76    0.00    0.00   64.71
    108  16   I-Bh-2c-   .122E+02   91.00   70.00    1.05    0.00    0.00    0.00    0.20  185.25   99.93    0.19   80.58  105.39    0.14   41.73    0.00    0.00   99.93
    109  16   I-Bh-2c-   .382E+02   91.00   70.00    5.10    0.00    0.00    0.00    0.20  185.25   99.91    6.37   74.44  753.87    0.22   37.72    0.00    0.00   99.91
    110  16   I-Bh-2c-   .870E+02   91.00   70.00   10.62    0.00    0.00    0.00    0.20  185.25   99.90    9.45   71.48 1171.69    0.27   37.72    0.00    0.00   99.90
    111  16   I-Y-2c-3   .166E+02   94.00   70.00   11.80    0.00    0.00    0.00    0.20  185.25  108.85    3.20   64.30 2893.83    0.21   10.84    0.00    0.00  108.85
    112  16   I-Bh-2c-   .219E+02   92.00   70.00   11.24    0.00    0.00    0.00    0.20  185.25    0.00    0.00  971.73    0.00    0.00    0.00    0.00    0.00    0.00
    113  16   I-Y-2c-3   .190E+02   92.00   70.00   11.82    0.00    0.00    0.00    0.20  185.25    0.00    0.00  971.73    0.00    0.00    0.00    0.00    0.00    0.00
    114  17   I-Bh-2c-   .378E+02   79.00   70.00    9.20    0.00    0.00    0.00    0.20  233.17   83.15   11.15  133.47  911.73    0.20   37.73    0.00    0.00   83.15
    115  17   I-K-U-2c   .357E+02   79.00   60.00    0.82    0.00    0.00    0.00    0.20  233.17   81.74    0.17  145.12   42.99    0.09   24.36    0.00    0.00   81.74
    116  17   I-K-U-2c   .135E+03   79.00   60.00    5.61    0.00    0.00    0.00    0.20  233.17   86.09    6.30  135.43  336.31    0.13   22.00    0.00    0.00   86.09
    117  17   I-K-U-2c   .933E+02   91.00   60.00    3.62    0.00    0.00    0.00    0.20  233.17  129.17    5.38   85.09  532.63    0.13   21.31    0.00    0.00  129.18
    118  17   I-K-U-2c   .613E+02   91.00   60.00    0.85    0.00    0.00    0.00    0.20  233.17  129.61    0.10   86.70   79.91    0.07   23.30    0.00    0.00  129.62
    119  17   I-K-U-2c   .102E+03   91.00   60.00    4.91    0.00    0.00    0.00    0.20  233.17  129.25    6.34   84.95  698.15    0.13   21.24    0.00    0.00  129.25
    120  17   I-K-U-2c   .106E+03   91.00   60.00    0.67    0.00    0.00    0.00    0.20  233.17  129.46    0.08   87.37   54.00    0.07   23.42    0.00    0.00  129.46
    121  18   I-Bh-2c-   .269E+02   81.00   70.00    0.98    0.00  103.55    0.00    0.20  679.48  368.81   77.67  197.28   14.68    5.26   59.43    3.64    1.13  368.81
    122  18   I-Bh-2c-   .177E+03   81.00   70.00    6.70    0.00  109.86    0.00    0.20  679.48  362.87   86.96  191.57   99.15    5.35   73.64    3.47    1.08  362.87
    123  18   GLACIER-   .621E+02   84.00   15.24   10.67    0.00   13.55    0.00    0.20  679.48  487.64   55.54   96.54    0.02    3.17    0.04    0.30    0.00  487.64
    124  18   I-Bh-2c-   .429E+02   79.00   70.00    1.10    0.00    0.00    0.00    0.20  679.48  362.44   97.55  170.77    9.86    0.41   37.82    0.59    0.00  362.44
    125  18   I-Bh-2c-   .323E+03   79.00   70.00    7.41    0.00    0.00    0.00    0.20  679.48  356.27  108.71  166.83   46.77    0.60   54.73    0.59    0.00  356.26
    126  19   I-K-U-2c   .104E+02   83.00   60.00    3.91    0.00   16.02    0.00    0.20  296.25  153.66   16.12   94.83  656.65    0.79   33.89    0.00    0.00  153.66
    127  19   I-K-U-2c   .105E+02   83.00   60.00    1.00    0.00   15.86    0.00    0.20  296.25  154.22   11.51   96.58   96.75    0.75   32.76    0.00    0.00  154.22
    128  19   I-Bh-2c-   .156E+02   79.00   70.00    7.67    0.00    0.00    0.00    0.20  296.25  139.04   15.09  130.17 1199.40    0.04   39.45    0.00    0.00  139.04
    129  19   I-K-U-2c   .512E+02   79.00   60.00    5.10    0.00    0.00    0.00    0.20  296.25  140.83    9.19  134.84  571.17    0.02   22.96    0.00    0.00  140.83
    130  19   I-K-U-2c   .792E+01   79.00   60.00    1.33    0.00    0.00    0.00    0.20  296.25  142.63    0.34  137.09  111.75    0.05   23.32    0.00    0.00  142.63
    131  19   I-K-U-2c   .954E+01   91.00   60.00    0.93    0.00    0.00    0.00    0.20  296.25  175.90    0.25   94.86  153.67    0.06   22.21    0.00    0.00  175.90
    132  19   I-K-U-2c   .232E+02   91.00   60.00    4.43    0.00    0.00    0.00    0.20  296.25  175.41    8.07   94.27 1234.30    0.12   21.24    0.00    0.00  175.41
    133  19   I-K-U-2c   .197E+02   91.00   60.00    7.70    0.00    0.00    0.00    0.20  296.25  175.56   10.55   93.07 2264.54    0.12   21.24    0.00    0.00  175.56
    134  19   I-K-U-2c   .519E+01   91.00   60.00    0.82    0.00    0.00    0.00    0.20  296.25  175.80    0.23   95.11  129.17    0.06   22.37    0.00    0.00  175.80
    135  20   I-Bh-2c-   .129E+03   81.00   70.00    6.88    0.00   96.87    0.00    0.20  333.76  161.90   10.86  159.70   47.08    1.66  143.73    0.00    0.00  161.90
    136  20   I-Bh-2c-   .163E+02   81.00   70.00    1.13    0.00   57.54    0.00    0.20  333.76  162.33    0.29  169.87    7.41    2.85   69.50    0.00    0.00  162.33
    137  20   I-K-U-2c   .151E+03   81.00   60.00    8.75    0.00   98.99    0.00    0.20  333.76  166.40    8.50  157.55   54.35    1.54  129.73    0.00    0.00  166.40
    138  20   I-Bh-2c-   .372E+03   79.00   70.00    7.23    0.00    0.00    0.00    0.20  333.76  159.03   16.45  149.24  134.05    0.94   46.25    0.07    0.00  159.03
    139  20   I-K-U-2c   .368E+03   79.00   60.00    8.83    0.00    0.00    0.00    0.20  333.76  157.81   14.60  149.08  157.59    0.89   28.33    0.07    0.00  157.80
    140  21   I-Bh-2c-   .169E+03   79.00   70.00    8.83    0.00    0.00    0.00    0.20  258.95  101.56   14.12  135.51  544.66    0.81   39.45    0.00    0.00  101.56
    141  21   I-Bh-2c-   .745E+02   91.00   70.00   10.22    0.00    0.00    0.00    0.20  258.95  135.11   14.55   97.67 2010.20    1.24   37.72    0.00    0.00  135.11
    142  22   I-Bh-2c-   .272E+03   81.00   70.00    5.34    0.00   86.27    0.00    0.20  467.49  182.39   75.36  192.93   37.37    3.92   56.90    0.00    0.00  182.39
    143  22   I-Bh-2c-   .897E+02   81.00   70.00    0.78    0.00   84.35    0.00    0.20  467.49  186.73   66.59  200.44    5.44    3.82   30.87    0.00    0.00  186.73
    144  22   I-Bh-2c-   .443E+03   79.00   70.00    5.75    0.00    0.00    0.00    0.20  467.49  186.88  101.89  150.47    5.47    1.67   26.50    1.75    0.00  186.88
    145  22   I-Bh-2c-   .685E+02   79.00   70.00    1.03    0.00    0.00    0.00    0.20  467.49  190.93   93.08  153.15    1.21    1.50    8.57    1.92    0.00  190.93
    146  23   I-Bh-2c-   .153E+02   79.00   70.00    1.20    0.00    0.00    0.00    0.20  163.67   49.00    0.19  109.94   45.57    0.27   46.08    0.00    0.00   49.00
    147  23   I-Bh-2c-   .120E+03   79.00   70.00    7.49    0.00    0.00    0.00    0.20  163.67   46.82    7.19  105.90  291.61    0.33   37.76    0.00    0.00   46.82
    148  23   I-Y-2c-3   .373E+02   84.00   70.00    7.57    0.00    0.00    0.00    0.20  163.67   62.00    2.29   94.12  674.47    0.37   10.84    0.00    0.00   62.00
    149  23   I-Bh-2c-   .718E+01   91.00   70.00    1.08    0.00    0.00    0.00    0.20  163.67   79.79    0.20   76.32   84.95    0.51   41.84    0.00    0.00   79.79
    150  23   I-Bh-2c-   .539E+02   91.00   70.00    7.83    0.00    0.00    0.00    0.20  163.67   79.65    8.13   70.20  888.22    0.67   37.72    0.00    0.00   79.65
    151  23   I-Y-2c-3   .129E+01   94.00   70.00    1.25    0.00    0.00    0.00    0.20  163.67   88.99    0.06   62.75  117.35    0.55   11.92    0.00    0.00   89.00
    152  23   I-Y-2c-3   .759E+01   94.00   70.00    5.58    0.00    0.00    0.00    0.20  163.67   88.87    2.02   62.62 1229.11    0.63   10.84    0.00    0.00   88.87
    153  23   I-Bh-2c-   .133E+03   91.00   70.00   10.19    0.00    0.00    0.00    0.20  163.67   79.54    8.98   69.45  792.85    0.70   37.72    0.00    0.00   79.54
    154  23   I-Y-2c-3   .107E+03   94.00   70.00   10.19    0.00    0.00    0.00    0.20  163.67   88.91    2.96   62.21 1196.83    0.64   10.84    0.00    0.00   88.91
    155  23   I-Bh-2c-   .135E+02   92.00   70.00   10.06    0.00    0.00    0.00    0.20  163.67    0.00    0.00  978.53    0.00    0.00    0.00    0.00    0.00    0.00
    156  23   I-Y-2c-3   .708E+02   92.00   70.00   11.05    0.00    0.00    0.00    0.20  163.67    0.00    0.00  978.53    0.00    0.00    0.00    0.00    0.00    0.00



                AVE MONTHLY BASIN VALUES
                   SNOW                      WATER               SED
  MON     RAIN     FALL   SURF Q    LAT Q    YIELD       ET    YIELD      PET
          (MM)     (MM)     (MM)     (MM)     (MM)     (MM)   (T/HA)     (MM)
    1     7.72     7.44     0.01     0.00     0.29     1.52     0.02     4.58
    2     8.10     7.78     0.00     0.00     0.12     1.97     0.00     8.03
    3    21.27    20.41     6.05     0.00     6.09     4.64     9.28    14.02
    4    63.81    58.21    22.25     0.00    21.92     8.99    24.32    21.27
    5    80.52    33.95   113.31     4.78   120.20    30.22   283.47    86.46
    6    72.44    32.45    35.92     4.72    48.27    35.00   115.68   151.42
    7    33.61     9.09     5.07     2.64    16.13    35.61    26.37   164.45
    8    33.36     3.91     5.67     1.97    11.38    27.00    25.51   155.03
    9    16.54    11.01     3.59     1.28     6.06    16.50    16.39   104.54
   10    41.68    35.18    16.99     1.11    18.87    12.10    34.49    45.75
   11    40.34    37.86     2.09     0.09     3.22     2.14     2.44     7.14
   12    15.85    13.87     5.88     0.00     6.58     1.88     9.01     5.65

     AVE ANNUAL BASIN STRESS DAYS
               WATER STRESS DAYS =    11.00
               TEMPERATURE STRESS DAYS =   169.55
               NITROGEN STRESS DAYS =     3.44
               PHOSPHORUS STRESS DAYS =     0.09
               AERATION STRESS DAYS =     0.00
1
    SWAT Sep 7    VER 2018/Rev 670                                                  

    General Input/Output section (file.cio):                                        
    5/13/2020 12:00:00 AM ARCGIS-SWAT interface AV                                  
                                                                                    
         AVE ANNUAL BASIN VALUES

              PRECIP =    435.4 MM
              SNOW FALL =  271.17 MM
              SNOW MELT =   254.02 MM
              SUBLIMATION =     4.75 MM
              SURFACE RUNOFF Q =   217.03 MM
              LATERAL SOIL Q =   16.63 MM
              TILE Q =     0.00 MM
              GROUNDWATER (SHAL AQ) Q =    24.06 MM
              GROUNDWATER (DEEP AQ) Q =     1.67 MM
              REVAP (SHAL AQ => SOIL/PLANTS) =   14.09 MM
              DEEP AQ RECHARGE =     1.78 MM
              TOTAL AQ RECHARGE =   35.51 MM
              TOTAL WATER YLD =   259.37 MM
              PERCOLATION OUT OF SOIL =   35.54 MM
              ET =    177.7 MM
              PET =    769.2MM
              TRANSMISSION LOSSES =     0.00 MM
              SEPTIC INFLOW =       0.00 MM
              TOTAL SEDIMENT LOADING =    547.58 T/HA
              TILE FROM IMPOUNDED WATER =     0.000 (MM)
              EVAPORATION FROM IMPOUNDED WATER =     0.000 (MM)
              SEEPAGE INTO SOIL FROM IMPOUNDED WATER =    0.000 (MM)
              OVERFLOW FROM IMPOUNDED WATER =    0.000 (MM)
1
    SWAT Sep 7    VER 2018/Rev 670                                                  

    General Input/Output section (file.cio):                                        
    5/13/2020 12:00:00 AM ARCGIS-SWAT interface AV                                  
                                                                                    
              AVE ANNUAL BASIN VALUES


              NUTRIENTS
                   ORGANIC N =    35.401 (KG/HA)
                   ORGANIC P =     4.353 (KG/HA)
                   NO3 YIELD (SQ) =     0.928 (KG/HA)
                   NO3 YIELD (LAT) =    0.167 (KG/HA)
                   NO3 YIELD (TILE) =    0.000 (KG/HA)
                   SOLP YIELD (TILE) =    0.000(KG/HA)
                   SOLP YIELD (SURF INLET RISER) =    0.000 (KG/HA)
                   SOL P YIELD =    0.030 (KG/HA)
                   NO3 LEACHED =     1.555 (KG/HA)
                   P LEACHED =     0.015 (KG/HA)
                   N UPTAKE =    18.418 (KG/HA)
                   P UPTAKE =    2.213 (KG/HA)
                   NO3 YIELD (GWQ) =     0.006 (KG/HA)
                   ACTIVE TO SOLUTION P FLOW =        -1.034 (KG/HA)
                   ACTIVE TO STABLE P FLOW =        -0.731 (KG/HA)
                   N FERTILIZER APPLIED =    13.339 (KG/HA)
                   P FERTILIZER APPLIED =     0.000 (KG/HA)
                   N FIXATION =     0.000 (KG/HA)
                   DENITRIFICATION =     0.312 (KG/HA)
                   HUMUS MIN ON ACTIVE ORG N =     1.756 (KG/HA)
                   ACTIVE TO STABLE ORG N =    -0.360 (KG/HA)
                   HUMUS MIN ON ACTIVE ORG P =    0.301 (KG/HA)
                   MIN FROM FRESH ORG N =    6.653 (KG/HA)
                   MIN FROM FRESH ORG P =    0.843 (KG/HA)
                   NO3 IN RAINFALL =     0.861 (KG/HA)
                   INITIAL NO3 IN SOIL =      42.764 (KG/HA)
                   FINAL NO3 IN SOIL =        20.019 (KG/HA)
                   INITIAL ORG N IN SOIL =   13093.731 (KG/HA)
                   FINAL ORG N IN SOIL =     12788.632 (KG/HA)
                   INITIAL MIN P IN SOIL =    2293.496 (KG/HA)
                   FINAL MIN P IN SOIL =      2246.355 (KG/HA)
                   INITIAL ORG P IN SOIL =    1603.982 (KG/HA)
                   FINAL ORG P IN SOIL =    1566.203 (KG/HA)
                   NO3 IN FERT =    13.339 (KG/HA)
                   AMMONIA IN FERT =     0.000 (KG/HA)
                   ORG N IN FERT =     0.000 (KG/HA)
                   MINERAL P IN FERT =     0.149 (KG/HA)
                   ORG P IN FERT =     0.000 (KG/HA)
                   N REMOVED IN YIELD =     4.933 (KG/HA)
                   P REMOVED IN YIELD =     0.434 (KG/HA)
                   AMMONIA VOLATILIZATION =     0.000 (KG/HA)
                   AMMONIA NITRIFICATION =      0.000 (KG/HA)
                   NO3 EVAP-LAYER 2 TO 1 =    3.798

                   DIE-GRO P Q =           0.0 (No/M2)
                   DIE-GRO LP Q =           0.0 (No/M2)
                   DIE-GRO P SED =          0.0 (No/M2)
                   DIE-GRO LP SED =          0.0 (No/M2)
                   BACT P RUNOFF =          0.0 (No/M2)
                   BACT LP RUNOFF =          0.0 (No/M2)
                   BACT P SEDIMENT =          0.0 (No/M2)
                   BACT LP SEDIMENT =          0.0 (No/M2)
                   BACT P INCORP =          0.0 (No/M2)
                   BACT LP INCORP =          0.0 (No/M2)

                   NITRATE SEPTIC =         0.00 (kg/ha)
                   AMMONIA SEPTIC =         0.00 (kg/ha)
                   ORG N SEPTIC =         0.00 (kg/ha)
                   FRESH ORGN SEPTIC =         0.00 (kg/ha)
                   ORG P SEPTIC =         0.00 (kg/ha)
                   FRESH ORGP SEPTIC =         0.00 (kg/ha)
                   SOL P SEPTIC =         0.00 (kg/ha)
                   BOD SEPTIC =         0.00 (kg/ha)
